*SPEF "ieee 1481-1999"
*DESIGN "mux16x1_project"
*DATE "11:11:11 Fri 11 11, 1111"
*VENDOR "OpenRCX"
*PROGRAM "Parallel Extraction"
*VERSION "1.0"
*DESIGN_FLOW "NAME_SCOPE LOCAL" "PIN_CAP NONE"
*DIVIDER /
*DELIMITER :
*BUS_DELIMITER []
*T_UNIT 1 NS
*C_UNIT 1 PF
*R_UNIT 1 OHM
*L_UNIT 1 HENRY

*NAME_MAP
*1 io_in[0]
*2 io_in[10]
*3 io_in[11]
*4 io_in[12]
*5 io_in[13]
*6 io_in[14]
*7 io_in[15]
*8 io_in[16]
*9 io_in[17]
*10 io_in[18]
*11 io_in[19]
*12 io_in[1]
*13 io_in[2]
*14 io_in[3]
*15 io_in[4]
*16 io_in[5]
*17 io_in[6]
*18 io_in[7]
*19 io_in[8]
*20 io_in[9]
*21 io_out
*24 _00_
*25 _01_
*26 _02_
*27 _03_
*28 _04_
*29 _05_
*30 _06_
*31 _07_
*32 _08_
*33 _09_
*34 _10_
*35 _11_
*36 _12_
*37 net1
*38 net10
*39 net11
*40 net12
*41 net13
*42 net14
*43 net15
*44 net16
*45 net17
*46 net18
*47 net19
*48 net2
*49 net20
*50 net21
*51 net3
*52 net4
*53 net5
*54 net6
*55 net7
*56 net8
*57 net9
*58 ANTENNA__13__S
*59 ANTENNA__14__A_N
*60 ANTENNA__14__B
*61 ANTENNA__15__A
*62 ANTENNA__15__B
*63 ANTENNA__16__A1
*64 ANTENNA__16__D1
*65 ANTENNA__17__A1
*66 ANTENNA__17__S
*67 ANTENNA__18__A
*68 ANTENNA__19__A_N
*69 ANTENNA__19__B
*70 ANTENNA__19__C
*71 ANTENNA__20__A
*72 ANTENNA__20__B
*73 ANTENNA__21__A1
*74 ANTENNA__22__S0
*75 ANTENNA__22__S1
*76 ANTENNA__23__S0
*77 ANTENNA__23__S1
*78 ANTENNA__24__S
*79 ANTENNA__25__A
*80 ANTENNA__26__A1
*81 ANTENNA_output21_A
*82 FILLER_0_0_1005
*83 FILLER_0_0_1009
*84 FILLER_0_0_1021
*85 FILLER_0_0_1033
*86 FILLER_0_0_1037
*87 FILLER_0_0_1049
*88 FILLER_0_0_1061
*89 FILLER_0_0_1065
*90 FILLER_0_0_1077
*91 FILLER_0_0_1089
*92 FILLER_0_0_109
*93 FILLER_0_0_1093
*94 FILLER_0_0_1105
*95 FILLER_0_0_1117
*96 FILLER_0_0_1121
*97 FILLER_0_0_113
*98 FILLER_0_0_1133
*99 FILLER_0_0_1145
*100 FILLER_0_0_1149
*101 FILLER_0_0_1161
*102 FILLER_0_0_1173
*103 FILLER_0_0_1177
*104 FILLER_0_0_1189
*105 FILLER_0_0_1201
*106 FILLER_0_0_1205
*107 FILLER_0_0_1217
*108 FILLER_0_0_1229
*109 FILLER_0_0_1233
*110 FILLER_0_0_1245
*111 FILLER_0_0_125
*112 FILLER_0_0_1257
*113 FILLER_0_0_1261
*114 FILLER_0_0_1273
*115 FILLER_0_0_1285
*116 FILLER_0_0_1289
*117 FILLER_0_0_1301
*118 FILLER_0_0_1313
*119 FILLER_0_0_1317
*120 FILLER_0_0_1329
*121 FILLER_0_0_1341
*122 FILLER_0_0_1345
*123 FILLER_0_0_1357
*124 FILLER_0_0_1369
*125 FILLER_0_0_137
*126 FILLER_0_0_1373
*127 FILLER_0_0_1385
*128 FILLER_0_0_1397
*129 FILLER_0_0_1401
*130 FILLER_0_0_141
*131 FILLER_0_0_1413
*132 FILLER_0_0_1425
*133 FILLER_0_0_1429
*134 FILLER_0_0_1441
*135 FILLER_0_0_1453
*136 FILLER_0_0_1457
*137 FILLER_0_0_1469
*138 FILLER_0_0_1481
*139 FILLER_0_0_1485
*140 FILLER_0_0_1493
*141 FILLER_0_0_15
*142 FILLER_0_0_153
*143 FILLER_0_0_165
*144 FILLER_0_0_169
*145 FILLER_0_0_181
*146 FILLER_0_0_193
*147 FILLER_0_0_197
*148 FILLER_0_0_209
*149 FILLER_0_0_221
*150 FILLER_0_0_225
*151 FILLER_0_0_237
*152 FILLER_0_0_249
*153 FILLER_0_0_253
*154 FILLER_0_0_265
*155 FILLER_0_0_27
*156 FILLER_0_0_277
*157 FILLER_0_0_281
*158 FILLER_0_0_29
*159 FILLER_0_0_293
*160 FILLER_0_0_3
*161 FILLER_0_0_305
*162 FILLER_0_0_309
*163 FILLER_0_0_321
*164 FILLER_0_0_333
*165 FILLER_0_0_337
*166 FILLER_0_0_349
*167 FILLER_0_0_361
*168 FILLER_0_0_365
*169 FILLER_0_0_377
*170 FILLER_0_0_389
*171 FILLER_0_0_393
*172 FILLER_0_0_405
*173 FILLER_0_0_41
*174 FILLER_0_0_417
*175 FILLER_0_0_421
*176 FILLER_0_0_433
*177 FILLER_0_0_445
*178 FILLER_0_0_449
*179 FILLER_0_0_461
*180 FILLER_0_0_473
*181 FILLER_0_0_477
*182 FILLER_0_0_489
*183 FILLER_0_0_501
*184 FILLER_0_0_505
*185 FILLER_0_0_517
*186 FILLER_0_0_529
*187 FILLER_0_0_53
*188 FILLER_0_0_533
*189 FILLER_0_0_545
*190 FILLER_0_0_557
*191 FILLER_0_0_561
*192 FILLER_0_0_57
*193 FILLER_0_0_573
*194 FILLER_0_0_585
*195 FILLER_0_0_589
*196 FILLER_0_0_601
*197 FILLER_0_0_613
*198 FILLER_0_0_617
*199 FILLER_0_0_629
*200 FILLER_0_0_641
*201 FILLER_0_0_645
*202 FILLER_0_0_657
*203 FILLER_0_0_669
*204 FILLER_0_0_673
*205 FILLER_0_0_685
*206 FILLER_0_0_69
*207 FILLER_0_0_697
*208 FILLER_0_0_701
*209 FILLER_0_0_713
*210 FILLER_0_0_725
*211 FILLER_0_0_729
*212 FILLER_0_0_741
*213 FILLER_0_0_753
*214 FILLER_0_0_757
*215 FILLER_0_0_769
*216 FILLER_0_0_781
*217 FILLER_0_0_785
*218 FILLER_0_0_797
*219 FILLER_0_0_809
*220 FILLER_0_0_81
*221 FILLER_0_0_813
*222 FILLER_0_0_825
*223 FILLER_0_0_837
*224 FILLER_0_0_841
*225 FILLER_0_0_85
*226 FILLER_0_0_853
*227 FILLER_0_0_865
*228 FILLER_0_0_869
*229 FILLER_0_0_881
*230 FILLER_0_0_893
*231 FILLER_0_0_897
*232 FILLER_0_0_909
*233 FILLER_0_0_921
*234 FILLER_0_0_925
*235 FILLER_0_0_937
*236 FILLER_0_0_949
*237 FILLER_0_0_953
*238 FILLER_0_0_965
*239 FILLER_0_0_97
*240 FILLER_0_0_977
*241 FILLER_0_0_981
*242 FILLER_0_0_993
*243 FILLER_0_100_1005
*244 FILLER_0_100_1017
*245 FILLER_0_100_1029
*246 FILLER_0_100_1035
*247 FILLER_0_100_1037
*248 FILLER_0_100_1049
*249 FILLER_0_100_1061
*250 FILLER_0_100_1073
*251 FILLER_0_100_1085
*252 FILLER_0_100_109
*253 FILLER_0_100_1091
*254 FILLER_0_100_1093
*255 FILLER_0_100_1105
*256 FILLER_0_100_1117
*257 FILLER_0_100_1129
*258 FILLER_0_100_1141
*259 FILLER_0_100_1147
*260 FILLER_0_100_1149
*261 FILLER_0_100_1161
*262 FILLER_0_100_1173
*263 FILLER_0_100_1185
*264 FILLER_0_100_1197
*265 FILLER_0_100_1203
*266 FILLER_0_100_1205
*267 FILLER_0_100_121
*268 FILLER_0_100_1217
*269 FILLER_0_100_1229
*270 FILLER_0_100_1241
*271 FILLER_0_100_1253
*272 FILLER_0_100_1259
*273 FILLER_0_100_1261
*274 FILLER_0_100_1273
*275 FILLER_0_100_1285
*276 FILLER_0_100_1297
*277 FILLER_0_100_1309
*278 FILLER_0_100_1315
*279 FILLER_0_100_1317
*280 FILLER_0_100_1329
*281 FILLER_0_100_133
*282 FILLER_0_100_1341
*283 FILLER_0_100_1353
*284 FILLER_0_100_1365
*285 FILLER_0_100_1371
*286 FILLER_0_100_1373
*287 FILLER_0_100_1385
*288 FILLER_0_100_139
*289 FILLER_0_100_1397
*290 FILLER_0_100_1409
*291 FILLER_0_100_141
*292 FILLER_0_100_1421
*293 FILLER_0_100_1427
*294 FILLER_0_100_1429
*295 FILLER_0_100_1441
*296 FILLER_0_100_1453
*297 FILLER_0_100_1465
*298 FILLER_0_100_1473
*299 FILLER_0_100_1476
*300 FILLER_0_100_1480
*301 FILLER_0_100_15
*302 FILLER_0_100_153
*303 FILLER_0_100_165
*304 FILLER_0_100_177
*305 FILLER_0_100_189
*306 FILLER_0_100_195
*307 FILLER_0_100_197
*308 FILLER_0_100_209
*309 FILLER_0_100_221
*310 FILLER_0_100_233
*311 FILLER_0_100_245
*312 FILLER_0_100_251
*313 FILLER_0_100_253
*314 FILLER_0_100_265
*315 FILLER_0_100_27
*316 FILLER_0_100_277
*317 FILLER_0_100_289
*318 FILLER_0_100_29
*319 FILLER_0_100_3
*320 FILLER_0_100_301
*321 FILLER_0_100_307
*322 FILLER_0_100_309
*323 FILLER_0_100_321
*324 FILLER_0_100_333
*325 FILLER_0_100_345
*326 FILLER_0_100_357
*327 FILLER_0_100_363
*328 FILLER_0_100_365
*329 FILLER_0_100_377
*330 FILLER_0_100_389
*331 FILLER_0_100_401
*332 FILLER_0_100_41
*333 FILLER_0_100_413
*334 FILLER_0_100_419
*335 FILLER_0_100_421
*336 FILLER_0_100_433
*337 FILLER_0_100_445
*338 FILLER_0_100_457
*339 FILLER_0_100_469
*340 FILLER_0_100_475
*341 FILLER_0_100_477
*342 FILLER_0_100_489
*343 FILLER_0_100_501
*344 FILLER_0_100_513
*345 FILLER_0_100_525
*346 FILLER_0_100_53
*347 FILLER_0_100_531
*348 FILLER_0_100_533
*349 FILLER_0_100_545
*350 FILLER_0_100_557
*351 FILLER_0_100_569
*352 FILLER_0_100_581
*353 FILLER_0_100_587
*354 FILLER_0_100_589
*355 FILLER_0_100_601
*356 FILLER_0_100_613
*357 FILLER_0_100_625
*358 FILLER_0_100_637
*359 FILLER_0_100_643
*360 FILLER_0_100_645
*361 FILLER_0_100_65
*362 FILLER_0_100_657
*363 FILLER_0_100_669
*364 FILLER_0_100_681
*365 FILLER_0_100_693
*366 FILLER_0_100_699
*367 FILLER_0_100_701
*368 FILLER_0_100_713
*369 FILLER_0_100_725
*370 FILLER_0_100_737
*371 FILLER_0_100_749
*372 FILLER_0_100_755
*373 FILLER_0_100_757
*374 FILLER_0_100_769
*375 FILLER_0_100_77
*376 FILLER_0_100_781
*377 FILLER_0_100_793
*378 FILLER_0_100_805
*379 FILLER_0_100_811
*380 FILLER_0_100_813
*381 FILLER_0_100_825
*382 FILLER_0_100_83
*383 FILLER_0_100_837
*384 FILLER_0_100_849
*385 FILLER_0_100_85
*386 FILLER_0_100_861
*387 FILLER_0_100_867
*388 FILLER_0_100_869
*389 FILLER_0_100_881
*390 FILLER_0_100_893
*391 FILLER_0_100_905
*392 FILLER_0_100_917
*393 FILLER_0_100_923
*394 FILLER_0_100_925
*395 FILLER_0_100_937
*396 FILLER_0_100_949
*397 FILLER_0_100_961
*398 FILLER_0_100_97
*399 FILLER_0_100_973
*400 FILLER_0_100_979
*401 FILLER_0_100_981
*402 FILLER_0_100_993
*403 FILLER_0_101_1001
*404 FILLER_0_101_1007
*405 FILLER_0_101_1009
*406 FILLER_0_101_1021
*407 FILLER_0_101_1033
*408 FILLER_0_101_1045
*409 FILLER_0_101_105
*410 FILLER_0_101_1057
*411 FILLER_0_101_1063
*412 FILLER_0_101_1065
*413 FILLER_0_101_1077
*414 FILLER_0_101_1089
*415 FILLER_0_101_1101
*416 FILLER_0_101_111
*417 FILLER_0_101_1113
*418 FILLER_0_101_1119
*419 FILLER_0_101_1121
*420 FILLER_0_101_113
*421 FILLER_0_101_1133
*422 FILLER_0_101_1145
*423 FILLER_0_101_1157
*424 FILLER_0_101_1169
*425 FILLER_0_101_1175
*426 FILLER_0_101_1177
*427 FILLER_0_101_1189
*428 FILLER_0_101_1201
*429 FILLER_0_101_1213
*430 FILLER_0_101_1225
*431 FILLER_0_101_1231
*432 FILLER_0_101_1233
*433 FILLER_0_101_1245
*434 FILLER_0_101_125
*435 FILLER_0_101_1257
*436 FILLER_0_101_1269
*437 FILLER_0_101_1281
*438 FILLER_0_101_1287
*439 FILLER_0_101_1289
*440 FILLER_0_101_1301
*441 FILLER_0_101_1313
*442 FILLER_0_101_1325
*443 FILLER_0_101_1337
*444 FILLER_0_101_1343
*445 FILLER_0_101_1345
*446 FILLER_0_101_1357
*447 FILLER_0_101_1369
*448 FILLER_0_101_137
*449 FILLER_0_101_1381
*450 FILLER_0_101_1393
*451 FILLER_0_101_1399
*452 FILLER_0_101_1401
*453 FILLER_0_101_1413
*454 FILLER_0_101_1425
*455 FILLER_0_101_1437
*456 FILLER_0_101_1449
*457 FILLER_0_101_1455
*458 FILLER_0_101_1457
*459 FILLER_0_101_1469
*460 FILLER_0_101_1481
*461 FILLER_0_101_1486
*462 FILLER_0_101_149
*463 FILLER_0_101_1490
*464 FILLER_0_101_15
*465 FILLER_0_101_161
*466 FILLER_0_101_167
*467 FILLER_0_101_169
*468 FILLER_0_101_181
*469 FILLER_0_101_193
*470 FILLER_0_101_205
*471 FILLER_0_101_217
*472 FILLER_0_101_223
*473 FILLER_0_101_225
*474 FILLER_0_101_237
*475 FILLER_0_101_249
*476 FILLER_0_101_261
*477 FILLER_0_101_27
*478 FILLER_0_101_273
*479 FILLER_0_101_279
*480 FILLER_0_101_281
*481 FILLER_0_101_293
*482 FILLER_0_101_3
*483 FILLER_0_101_305
*484 FILLER_0_101_317
*485 FILLER_0_101_329
*486 FILLER_0_101_335
*487 FILLER_0_101_337
*488 FILLER_0_101_349
*489 FILLER_0_101_361
*490 FILLER_0_101_373
*491 FILLER_0_101_385
*492 FILLER_0_101_39
*493 FILLER_0_101_391
*494 FILLER_0_101_393
*495 FILLER_0_101_405
*496 FILLER_0_101_417
*497 FILLER_0_101_429
*498 FILLER_0_101_441
*499 FILLER_0_101_447
*500 FILLER_0_101_449
*501 FILLER_0_101_461
*502 FILLER_0_101_473
*503 FILLER_0_101_485
*504 FILLER_0_101_497
*505 FILLER_0_101_503
*506 FILLER_0_101_505
*507 FILLER_0_101_51
*508 FILLER_0_101_517
*509 FILLER_0_101_529
*510 FILLER_0_101_541
*511 FILLER_0_101_55
*512 FILLER_0_101_553
*513 FILLER_0_101_559
*514 FILLER_0_101_561
*515 FILLER_0_101_57
*516 FILLER_0_101_573
*517 FILLER_0_101_585
*518 FILLER_0_101_597
*519 FILLER_0_101_609
*520 FILLER_0_101_615
*521 FILLER_0_101_617
*522 FILLER_0_101_629
*523 FILLER_0_101_641
*524 FILLER_0_101_653
*525 FILLER_0_101_665
*526 FILLER_0_101_671
*527 FILLER_0_101_673
*528 FILLER_0_101_685
*529 FILLER_0_101_69
*530 FILLER_0_101_697
*531 FILLER_0_101_709
*532 FILLER_0_101_721
*533 FILLER_0_101_727
*534 FILLER_0_101_729
*535 FILLER_0_101_741
*536 FILLER_0_101_753
*537 FILLER_0_101_765
*538 FILLER_0_101_777
*539 FILLER_0_101_783
*540 FILLER_0_101_785
*541 FILLER_0_101_797
*542 FILLER_0_101_809
*543 FILLER_0_101_81
*544 FILLER_0_101_821
*545 FILLER_0_101_833
*546 FILLER_0_101_839
*547 FILLER_0_101_841
*548 FILLER_0_101_853
*549 FILLER_0_101_865
*550 FILLER_0_101_877
*551 FILLER_0_101_889
*552 FILLER_0_101_895
*553 FILLER_0_101_897
*554 FILLER_0_101_909
*555 FILLER_0_101_921
*556 FILLER_0_101_93
*557 FILLER_0_101_933
*558 FILLER_0_101_945
*559 FILLER_0_101_951
*560 FILLER_0_101_953
*561 FILLER_0_101_965
*562 FILLER_0_101_977
*563 FILLER_0_101_989
*564 FILLER_0_102_1005
*565 FILLER_0_102_1017
*566 FILLER_0_102_1029
*567 FILLER_0_102_1035
*568 FILLER_0_102_1037
*569 FILLER_0_102_1049
*570 FILLER_0_102_1061
*571 FILLER_0_102_1073
*572 FILLER_0_102_1085
*573 FILLER_0_102_109
*574 FILLER_0_102_1091
*575 FILLER_0_102_1093
*576 FILLER_0_102_1105
*577 FILLER_0_102_1117
*578 FILLER_0_102_1129
*579 FILLER_0_102_1141
*580 FILLER_0_102_1147
*581 FILLER_0_102_1149
*582 FILLER_0_102_1161
*583 FILLER_0_102_1173
*584 FILLER_0_102_1185
*585 FILLER_0_102_1197
*586 FILLER_0_102_1203
*587 FILLER_0_102_1205
*588 FILLER_0_102_121
*589 FILLER_0_102_1217
*590 FILLER_0_102_1229
*591 FILLER_0_102_1241
*592 FILLER_0_102_1253
*593 FILLER_0_102_1259
*594 FILLER_0_102_1261
*595 FILLER_0_102_1273
*596 FILLER_0_102_1285
*597 FILLER_0_102_1297
*598 FILLER_0_102_1309
*599 FILLER_0_102_1315
*600 FILLER_0_102_1317
*601 FILLER_0_102_1329
*602 FILLER_0_102_133
*603 FILLER_0_102_1341
*604 FILLER_0_102_1353
*605 FILLER_0_102_1365
*606 FILLER_0_102_1371
*607 FILLER_0_102_1373
*608 FILLER_0_102_1385
*609 FILLER_0_102_139
*610 FILLER_0_102_1397
*611 FILLER_0_102_1409
*612 FILLER_0_102_141
*613 FILLER_0_102_1421
*614 FILLER_0_102_1427
*615 FILLER_0_102_1429
*616 FILLER_0_102_1441
*617 FILLER_0_102_1453
*618 FILLER_0_102_1465
*619 FILLER_0_102_1477
*620 FILLER_0_102_1483
*621 FILLER_0_102_1485
*622 FILLER_0_102_1489
*623 FILLER_0_102_1493
*624 FILLER_0_102_15
*625 FILLER_0_102_153
*626 FILLER_0_102_165
*627 FILLER_0_102_177
*628 FILLER_0_102_189
*629 FILLER_0_102_195
*630 FILLER_0_102_197
*631 FILLER_0_102_209
*632 FILLER_0_102_221
*633 FILLER_0_102_233
*634 FILLER_0_102_245
*635 FILLER_0_102_251
*636 FILLER_0_102_253
*637 FILLER_0_102_265
*638 FILLER_0_102_27
*639 FILLER_0_102_277
*640 FILLER_0_102_289
*641 FILLER_0_102_29
*642 FILLER_0_102_3
*643 FILLER_0_102_301
*644 FILLER_0_102_307
*645 FILLER_0_102_309
*646 FILLER_0_102_321
*647 FILLER_0_102_333
*648 FILLER_0_102_345
*649 FILLER_0_102_357
*650 FILLER_0_102_363
*651 FILLER_0_102_365
*652 FILLER_0_102_377
*653 FILLER_0_102_389
*654 FILLER_0_102_401
*655 FILLER_0_102_41
*656 FILLER_0_102_413
*657 FILLER_0_102_419
*658 FILLER_0_102_421
*659 FILLER_0_102_433
*660 FILLER_0_102_445
*661 FILLER_0_102_457
*662 FILLER_0_102_469
*663 FILLER_0_102_475
*664 FILLER_0_102_477
*665 FILLER_0_102_489
*666 FILLER_0_102_501
*667 FILLER_0_102_513
*668 FILLER_0_102_525
*669 FILLER_0_102_53
*670 FILLER_0_102_531
*671 FILLER_0_102_533
*672 FILLER_0_102_545
*673 FILLER_0_102_557
*674 FILLER_0_102_569
*675 FILLER_0_102_581
*676 FILLER_0_102_587
*677 FILLER_0_102_589
*678 FILLER_0_102_601
*679 FILLER_0_102_613
*680 FILLER_0_102_625
*681 FILLER_0_102_637
*682 FILLER_0_102_643
*683 FILLER_0_102_645
*684 FILLER_0_102_65
*685 FILLER_0_102_657
*686 FILLER_0_102_669
*687 FILLER_0_102_681
*688 FILLER_0_102_693
*689 FILLER_0_102_699
*690 FILLER_0_102_701
*691 FILLER_0_102_713
*692 FILLER_0_102_725
*693 FILLER_0_102_737
*694 FILLER_0_102_749
*695 FILLER_0_102_755
*696 FILLER_0_102_757
*697 FILLER_0_102_769
*698 FILLER_0_102_77
*699 FILLER_0_102_781
*700 FILLER_0_102_793
*701 FILLER_0_102_805
*702 FILLER_0_102_811
*703 FILLER_0_102_813
*704 FILLER_0_102_825
*705 FILLER_0_102_83
*706 FILLER_0_102_837
*707 FILLER_0_102_849
*708 FILLER_0_102_85
*709 FILLER_0_102_861
*710 FILLER_0_102_867
*711 FILLER_0_102_869
*712 FILLER_0_102_881
*713 FILLER_0_102_893
*714 FILLER_0_102_905
*715 FILLER_0_102_917
*716 FILLER_0_102_923
*717 FILLER_0_102_925
*718 FILLER_0_102_937
*719 FILLER_0_102_949
*720 FILLER_0_102_961
*721 FILLER_0_102_97
*722 FILLER_0_102_973
*723 FILLER_0_102_979
*724 FILLER_0_102_981
*725 FILLER_0_102_993
*726 FILLER_0_103_1001
*727 FILLER_0_103_1007
*728 FILLER_0_103_1009
*729 FILLER_0_103_1021
*730 FILLER_0_103_1033
*731 FILLER_0_103_1045
*732 FILLER_0_103_105
*733 FILLER_0_103_1057
*734 FILLER_0_103_1063
*735 FILLER_0_103_1065
*736 FILLER_0_103_1077
*737 FILLER_0_103_1089
*738 FILLER_0_103_1101
*739 FILLER_0_103_111
*740 FILLER_0_103_1113
*741 FILLER_0_103_1119
*742 FILLER_0_103_1121
*743 FILLER_0_103_113
*744 FILLER_0_103_1133
*745 FILLER_0_103_1145
*746 FILLER_0_103_1157
*747 FILLER_0_103_1169
*748 FILLER_0_103_1175
*749 FILLER_0_103_1177
*750 FILLER_0_103_1189
*751 FILLER_0_103_1201
*752 FILLER_0_103_1213
*753 FILLER_0_103_1225
*754 FILLER_0_103_1231
*755 FILLER_0_103_1233
*756 FILLER_0_103_1245
*757 FILLER_0_103_125
*758 FILLER_0_103_1257
*759 FILLER_0_103_1269
*760 FILLER_0_103_1281
*761 FILLER_0_103_1287
*762 FILLER_0_103_1289
*763 FILLER_0_103_1301
*764 FILLER_0_103_1313
*765 FILLER_0_103_1325
*766 FILLER_0_103_1337
*767 FILLER_0_103_1343
*768 FILLER_0_103_1345
*769 FILLER_0_103_1357
*770 FILLER_0_103_1369
*771 FILLER_0_103_137
*772 FILLER_0_103_1381
*773 FILLER_0_103_1393
*774 FILLER_0_103_1399
*775 FILLER_0_103_1401
*776 FILLER_0_103_1413
*777 FILLER_0_103_1425
*778 FILLER_0_103_1437
*779 FILLER_0_103_1449
*780 FILLER_0_103_1455
*781 FILLER_0_103_1457
*782 FILLER_0_103_1469
*783 FILLER_0_103_1481
*784 FILLER_0_103_149
*785 FILLER_0_103_1493
*786 FILLER_0_103_15
*787 FILLER_0_103_161
*788 FILLER_0_103_167
*789 FILLER_0_103_169
*790 FILLER_0_103_181
*791 FILLER_0_103_193
*792 FILLER_0_103_205
*793 FILLER_0_103_217
*794 FILLER_0_103_223
*795 FILLER_0_103_225
*796 FILLER_0_103_237
*797 FILLER_0_103_249
*798 FILLER_0_103_261
*799 FILLER_0_103_27
*800 FILLER_0_103_273
*801 FILLER_0_103_279
*802 FILLER_0_103_281
*803 FILLER_0_103_293
*804 FILLER_0_103_3
*805 FILLER_0_103_305
*806 FILLER_0_103_317
*807 FILLER_0_103_329
*808 FILLER_0_103_335
*809 FILLER_0_103_337
*810 FILLER_0_103_349
*811 FILLER_0_103_361
*812 FILLER_0_103_373
*813 FILLER_0_103_385
*814 FILLER_0_103_39
*815 FILLER_0_103_391
*816 FILLER_0_103_393
*817 FILLER_0_103_405
*818 FILLER_0_103_417
*819 FILLER_0_103_429
*820 FILLER_0_103_441
*821 FILLER_0_103_447
*822 FILLER_0_103_449
*823 FILLER_0_103_461
*824 FILLER_0_103_473
*825 FILLER_0_103_485
*826 FILLER_0_103_497
*827 FILLER_0_103_503
*828 FILLER_0_103_505
*829 FILLER_0_103_51
*830 FILLER_0_103_517
*831 FILLER_0_103_529
*832 FILLER_0_103_541
*833 FILLER_0_103_55
*834 FILLER_0_103_553
*835 FILLER_0_103_559
*836 FILLER_0_103_561
*837 FILLER_0_103_57
*838 FILLER_0_103_573
*839 FILLER_0_103_585
*840 FILLER_0_103_597
*841 FILLER_0_103_609
*842 FILLER_0_103_615
*843 FILLER_0_103_617
*844 FILLER_0_103_629
*845 FILLER_0_103_641
*846 FILLER_0_103_653
*847 FILLER_0_103_665
*848 FILLER_0_103_671
*849 FILLER_0_103_673
*850 FILLER_0_103_685
*851 FILLER_0_103_69
*852 FILLER_0_103_697
*853 FILLER_0_103_709
*854 FILLER_0_103_721
*855 FILLER_0_103_727
*856 FILLER_0_103_729
*857 FILLER_0_103_741
*858 FILLER_0_103_753
*859 FILLER_0_103_765
*860 FILLER_0_103_777
*861 FILLER_0_103_783
*862 FILLER_0_103_785
*863 FILLER_0_103_797
*864 FILLER_0_103_809
*865 FILLER_0_103_81
*866 FILLER_0_103_821
*867 FILLER_0_103_833
*868 FILLER_0_103_839
*869 FILLER_0_103_841
*870 FILLER_0_103_853
*871 FILLER_0_103_865
*872 FILLER_0_103_877
*873 FILLER_0_103_889
*874 FILLER_0_103_895
*875 FILLER_0_103_897
*876 FILLER_0_103_909
*877 FILLER_0_103_921
*878 FILLER_0_103_93
*879 FILLER_0_103_933
*880 FILLER_0_103_945
*881 FILLER_0_103_951
*882 FILLER_0_103_953
*883 FILLER_0_103_965
*884 FILLER_0_103_977
*885 FILLER_0_103_989
*886 FILLER_0_104_1005
*887 FILLER_0_104_1017
*888 FILLER_0_104_1029
*889 FILLER_0_104_1035
*890 FILLER_0_104_1037
*891 FILLER_0_104_1049
*892 FILLER_0_104_1061
*893 FILLER_0_104_1073
*894 FILLER_0_104_1085
*895 FILLER_0_104_109
*896 FILLER_0_104_1091
*897 FILLER_0_104_1093
*898 FILLER_0_104_1105
*899 FILLER_0_104_1117
*900 FILLER_0_104_1129
*901 FILLER_0_104_1141
*902 FILLER_0_104_1147
*903 FILLER_0_104_1149
*904 FILLER_0_104_1161
*905 FILLER_0_104_1173
*906 FILLER_0_104_1185
*907 FILLER_0_104_1197
*908 FILLER_0_104_1203
*909 FILLER_0_104_1205
*910 FILLER_0_104_121
*911 FILLER_0_104_1217
*912 FILLER_0_104_1229
*913 FILLER_0_104_1241
*914 FILLER_0_104_1253
*915 FILLER_0_104_1259
*916 FILLER_0_104_1261
*917 FILLER_0_104_1273
*918 FILLER_0_104_1285
*919 FILLER_0_104_1297
*920 FILLER_0_104_1309
*921 FILLER_0_104_1315
*922 FILLER_0_104_1317
*923 FILLER_0_104_1329
*924 FILLER_0_104_133
*925 FILLER_0_104_1341
*926 FILLER_0_104_1353
*927 FILLER_0_104_1365
*928 FILLER_0_104_1371
*929 FILLER_0_104_1373
*930 FILLER_0_104_1385
*931 FILLER_0_104_139
*932 FILLER_0_104_1397
*933 FILLER_0_104_1409
*934 FILLER_0_104_141
*935 FILLER_0_104_1421
*936 FILLER_0_104_1427
*937 FILLER_0_104_1429
*938 FILLER_0_104_1441
*939 FILLER_0_104_1453
*940 FILLER_0_104_1465
*941 FILLER_0_104_1477
*942 FILLER_0_104_1483
*943 FILLER_0_104_1485
*944 FILLER_0_104_1493
*945 FILLER_0_104_15
*946 FILLER_0_104_153
*947 FILLER_0_104_165
*948 FILLER_0_104_177
*949 FILLER_0_104_189
*950 FILLER_0_104_195
*951 FILLER_0_104_197
*952 FILLER_0_104_209
*953 FILLER_0_104_221
*954 FILLER_0_104_233
*955 FILLER_0_104_245
*956 FILLER_0_104_251
*957 FILLER_0_104_253
*958 FILLER_0_104_265
*959 FILLER_0_104_27
*960 FILLER_0_104_277
*961 FILLER_0_104_289
*962 FILLER_0_104_29
*963 FILLER_0_104_3
*964 FILLER_0_104_301
*965 FILLER_0_104_307
*966 FILLER_0_104_309
*967 FILLER_0_104_321
*968 FILLER_0_104_333
*969 FILLER_0_104_345
*970 FILLER_0_104_357
*971 FILLER_0_104_363
*972 FILLER_0_104_365
*973 FILLER_0_104_377
*974 FILLER_0_104_389
*975 FILLER_0_104_401
*976 FILLER_0_104_41
*977 FILLER_0_104_413
*978 FILLER_0_104_419
*979 FILLER_0_104_421
*980 FILLER_0_104_433
*981 FILLER_0_104_445
*982 FILLER_0_104_457
*983 FILLER_0_104_469
*984 FILLER_0_104_475
*985 FILLER_0_104_477
*986 FILLER_0_104_489
*987 FILLER_0_104_501
*988 FILLER_0_104_513
*989 FILLER_0_104_525
*990 FILLER_0_104_53
*991 FILLER_0_104_531
*992 FILLER_0_104_533
*993 FILLER_0_104_545
*994 FILLER_0_104_557
*995 FILLER_0_104_569
*996 FILLER_0_104_581
*997 FILLER_0_104_587
*998 FILLER_0_104_589
*999 FILLER_0_104_601
*1000 FILLER_0_104_613
*1001 FILLER_0_104_625
*1002 FILLER_0_104_637
*1003 FILLER_0_104_643
*1004 FILLER_0_104_645
*1005 FILLER_0_104_65
*1006 FILLER_0_104_657
*1007 FILLER_0_104_669
*1008 FILLER_0_104_681
*1009 FILLER_0_104_693
*1010 FILLER_0_104_699
*1011 FILLER_0_104_701
*1012 FILLER_0_104_713
*1013 FILLER_0_104_725
*1014 FILLER_0_104_737
*1015 FILLER_0_104_749
*1016 FILLER_0_104_755
*1017 FILLER_0_104_757
*1018 FILLER_0_104_769
*1019 FILLER_0_104_77
*1020 FILLER_0_104_781
*1021 FILLER_0_104_793
*1022 FILLER_0_104_805
*1023 FILLER_0_104_811
*1024 FILLER_0_104_813
*1025 FILLER_0_104_825
*1026 FILLER_0_104_83
*1027 FILLER_0_104_837
*1028 FILLER_0_104_849
*1029 FILLER_0_104_85
*1030 FILLER_0_104_861
*1031 FILLER_0_104_867
*1032 FILLER_0_104_869
*1033 FILLER_0_104_881
*1034 FILLER_0_104_893
*1035 FILLER_0_104_905
*1036 FILLER_0_104_917
*1037 FILLER_0_104_923
*1038 FILLER_0_104_925
*1039 FILLER_0_104_937
*1040 FILLER_0_104_949
*1041 FILLER_0_104_961
*1042 FILLER_0_104_97
*1043 FILLER_0_104_973
*1044 FILLER_0_104_979
*1045 FILLER_0_104_981
*1046 FILLER_0_104_993
*1047 FILLER_0_105_1001
*1048 FILLER_0_105_1007
*1049 FILLER_0_105_1009
*1050 FILLER_0_105_1021
*1051 FILLER_0_105_1033
*1052 FILLER_0_105_1045
*1053 FILLER_0_105_105
*1054 FILLER_0_105_1057
*1055 FILLER_0_105_1063
*1056 FILLER_0_105_1065
*1057 FILLER_0_105_1077
*1058 FILLER_0_105_1089
*1059 FILLER_0_105_1101
*1060 FILLER_0_105_111
*1061 FILLER_0_105_1113
*1062 FILLER_0_105_1119
*1063 FILLER_0_105_1121
*1064 FILLER_0_105_113
*1065 FILLER_0_105_1133
*1066 FILLER_0_105_1145
*1067 FILLER_0_105_1157
*1068 FILLER_0_105_1169
*1069 FILLER_0_105_1175
*1070 FILLER_0_105_1177
*1071 FILLER_0_105_1189
*1072 FILLER_0_105_1201
*1073 FILLER_0_105_1213
*1074 FILLER_0_105_1225
*1075 FILLER_0_105_1231
*1076 FILLER_0_105_1233
*1077 FILLER_0_105_1245
*1078 FILLER_0_105_125
*1079 FILLER_0_105_1257
*1080 FILLER_0_105_1269
*1081 FILLER_0_105_1281
*1082 FILLER_0_105_1287
*1083 FILLER_0_105_1289
*1084 FILLER_0_105_1301
*1085 FILLER_0_105_1313
*1086 FILLER_0_105_1325
*1087 FILLER_0_105_1337
*1088 FILLER_0_105_1343
*1089 FILLER_0_105_1345
*1090 FILLER_0_105_1357
*1091 FILLER_0_105_1369
*1092 FILLER_0_105_137
*1093 FILLER_0_105_1381
*1094 FILLER_0_105_1393
*1095 FILLER_0_105_1399
*1096 FILLER_0_105_1401
*1097 FILLER_0_105_1413
*1098 FILLER_0_105_1425
*1099 FILLER_0_105_1437
*1100 FILLER_0_105_1449
*1101 FILLER_0_105_1455
*1102 FILLER_0_105_1457
*1103 FILLER_0_105_1469
*1104 FILLER_0_105_1481
*1105 FILLER_0_105_1489
*1106 FILLER_0_105_149
*1107 FILLER_0_105_15
*1108 FILLER_0_105_161
*1109 FILLER_0_105_167
*1110 FILLER_0_105_169
*1111 FILLER_0_105_181
*1112 FILLER_0_105_193
*1113 FILLER_0_105_205
*1114 FILLER_0_105_217
*1115 FILLER_0_105_223
*1116 FILLER_0_105_225
*1117 FILLER_0_105_237
*1118 FILLER_0_105_249
*1119 FILLER_0_105_261
*1120 FILLER_0_105_27
*1121 FILLER_0_105_273
*1122 FILLER_0_105_279
*1123 FILLER_0_105_281
*1124 FILLER_0_105_293
*1125 FILLER_0_105_3
*1126 FILLER_0_105_305
*1127 FILLER_0_105_317
*1128 FILLER_0_105_329
*1129 FILLER_0_105_335
*1130 FILLER_0_105_337
*1131 FILLER_0_105_349
*1132 FILLER_0_105_361
*1133 FILLER_0_105_373
*1134 FILLER_0_105_385
*1135 FILLER_0_105_39
*1136 FILLER_0_105_391
*1137 FILLER_0_105_393
*1138 FILLER_0_105_405
*1139 FILLER_0_105_417
*1140 FILLER_0_105_429
*1141 FILLER_0_105_441
*1142 FILLER_0_105_447
*1143 FILLER_0_105_449
*1144 FILLER_0_105_461
*1145 FILLER_0_105_473
*1146 FILLER_0_105_485
*1147 FILLER_0_105_497
*1148 FILLER_0_105_503
*1149 FILLER_0_105_505
*1150 FILLER_0_105_51
*1151 FILLER_0_105_517
*1152 FILLER_0_105_529
*1153 FILLER_0_105_541
*1154 FILLER_0_105_55
*1155 FILLER_0_105_553
*1156 FILLER_0_105_559
*1157 FILLER_0_105_561
*1158 FILLER_0_105_57
*1159 FILLER_0_105_573
*1160 FILLER_0_105_585
*1161 FILLER_0_105_597
*1162 FILLER_0_105_609
*1163 FILLER_0_105_615
*1164 FILLER_0_105_617
*1165 FILLER_0_105_629
*1166 FILLER_0_105_641
*1167 FILLER_0_105_653
*1168 FILLER_0_105_665
*1169 FILLER_0_105_671
*1170 FILLER_0_105_673
*1171 FILLER_0_105_685
*1172 FILLER_0_105_69
*1173 FILLER_0_105_697
*1174 FILLER_0_105_709
*1175 FILLER_0_105_721
*1176 FILLER_0_105_727
*1177 FILLER_0_105_729
*1178 FILLER_0_105_741
*1179 FILLER_0_105_753
*1180 FILLER_0_105_765
*1181 FILLER_0_105_777
*1182 FILLER_0_105_783
*1183 FILLER_0_105_785
*1184 FILLER_0_105_797
*1185 FILLER_0_105_809
*1186 FILLER_0_105_81
*1187 FILLER_0_105_821
*1188 FILLER_0_105_833
*1189 FILLER_0_105_839
*1190 FILLER_0_105_841
*1191 FILLER_0_105_853
*1192 FILLER_0_105_865
*1193 FILLER_0_105_877
*1194 FILLER_0_105_889
*1195 FILLER_0_105_895
*1196 FILLER_0_105_897
*1197 FILLER_0_105_909
*1198 FILLER_0_105_921
*1199 FILLER_0_105_93
*1200 FILLER_0_105_933
*1201 FILLER_0_105_945
*1202 FILLER_0_105_951
*1203 FILLER_0_105_953
*1204 FILLER_0_105_965
*1205 FILLER_0_105_977
*1206 FILLER_0_105_989
*1207 FILLER_0_106_1005
*1208 FILLER_0_106_1017
*1209 FILLER_0_106_1029
*1210 FILLER_0_106_1035
*1211 FILLER_0_106_1037
*1212 FILLER_0_106_1049
*1213 FILLER_0_106_1061
*1214 FILLER_0_106_1073
*1215 FILLER_0_106_1085
*1216 FILLER_0_106_109
*1217 FILLER_0_106_1091
*1218 FILLER_0_106_1093
*1219 FILLER_0_106_1105
*1220 FILLER_0_106_1117
*1221 FILLER_0_106_1129
*1222 FILLER_0_106_1141
*1223 FILLER_0_106_1147
*1224 FILLER_0_106_1149
*1225 FILLER_0_106_1161
*1226 FILLER_0_106_1173
*1227 FILLER_0_106_1185
*1228 FILLER_0_106_1197
*1229 FILLER_0_106_1203
*1230 FILLER_0_106_1205
*1231 FILLER_0_106_121
*1232 FILLER_0_106_1217
*1233 FILLER_0_106_1229
*1234 FILLER_0_106_1241
*1235 FILLER_0_106_1253
*1236 FILLER_0_106_1259
*1237 FILLER_0_106_1261
*1238 FILLER_0_106_1273
*1239 FILLER_0_106_1285
*1240 FILLER_0_106_1297
*1241 FILLER_0_106_1309
*1242 FILLER_0_106_1315
*1243 FILLER_0_106_1317
*1244 FILLER_0_106_1329
*1245 FILLER_0_106_133
*1246 FILLER_0_106_1341
*1247 FILLER_0_106_1353
*1248 FILLER_0_106_1365
*1249 FILLER_0_106_1371
*1250 FILLER_0_106_1373
*1251 FILLER_0_106_1385
*1252 FILLER_0_106_139
*1253 FILLER_0_106_1397
*1254 FILLER_0_106_1409
*1255 FILLER_0_106_141
*1256 FILLER_0_106_1421
*1257 FILLER_0_106_1427
*1258 FILLER_0_106_1429
*1259 FILLER_0_106_1441
*1260 FILLER_0_106_1453
*1261 FILLER_0_106_1465
*1262 FILLER_0_106_1477
*1263 FILLER_0_106_1483
*1264 FILLER_0_106_1485
*1265 FILLER_0_106_1493
*1266 FILLER_0_106_15
*1267 FILLER_0_106_153
*1268 FILLER_0_106_165
*1269 FILLER_0_106_177
*1270 FILLER_0_106_189
*1271 FILLER_0_106_195
*1272 FILLER_0_106_197
*1273 FILLER_0_106_209
*1274 FILLER_0_106_221
*1275 FILLER_0_106_233
*1276 FILLER_0_106_245
*1277 FILLER_0_106_251
*1278 FILLER_0_106_253
*1279 FILLER_0_106_265
*1280 FILLER_0_106_27
*1281 FILLER_0_106_277
*1282 FILLER_0_106_289
*1283 FILLER_0_106_29
*1284 FILLER_0_106_3
*1285 FILLER_0_106_301
*1286 FILLER_0_106_307
*1287 FILLER_0_106_309
*1288 FILLER_0_106_321
*1289 FILLER_0_106_333
*1290 FILLER_0_106_345
*1291 FILLER_0_106_357
*1292 FILLER_0_106_363
*1293 FILLER_0_106_365
*1294 FILLER_0_106_377
*1295 FILLER_0_106_389
*1296 FILLER_0_106_401
*1297 FILLER_0_106_41
*1298 FILLER_0_106_413
*1299 FILLER_0_106_419
*1300 FILLER_0_106_421
*1301 FILLER_0_106_433
*1302 FILLER_0_106_445
*1303 FILLER_0_106_457
*1304 FILLER_0_106_469
*1305 FILLER_0_106_475
*1306 FILLER_0_106_477
*1307 FILLER_0_106_489
*1308 FILLER_0_106_501
*1309 FILLER_0_106_513
*1310 FILLER_0_106_525
*1311 FILLER_0_106_53
*1312 FILLER_0_106_531
*1313 FILLER_0_106_533
*1314 FILLER_0_106_545
*1315 FILLER_0_106_557
*1316 FILLER_0_106_569
*1317 FILLER_0_106_581
*1318 FILLER_0_106_587
*1319 FILLER_0_106_589
*1320 FILLER_0_106_601
*1321 FILLER_0_106_613
*1322 FILLER_0_106_625
*1323 FILLER_0_106_637
*1324 FILLER_0_106_643
*1325 FILLER_0_106_645
*1326 FILLER_0_106_65
*1327 FILLER_0_106_657
*1328 FILLER_0_106_669
*1329 FILLER_0_106_681
*1330 FILLER_0_106_693
*1331 FILLER_0_106_699
*1332 FILLER_0_106_701
*1333 FILLER_0_106_713
*1334 FILLER_0_106_725
*1335 FILLER_0_106_737
*1336 FILLER_0_106_749
*1337 FILLER_0_106_755
*1338 FILLER_0_106_757
*1339 FILLER_0_106_769
*1340 FILLER_0_106_77
*1341 FILLER_0_106_781
*1342 FILLER_0_106_793
*1343 FILLER_0_106_805
*1344 FILLER_0_106_811
*1345 FILLER_0_106_813
*1346 FILLER_0_106_825
*1347 FILLER_0_106_83
*1348 FILLER_0_106_837
*1349 FILLER_0_106_849
*1350 FILLER_0_106_85
*1351 FILLER_0_106_861
*1352 FILLER_0_106_867
*1353 FILLER_0_106_869
*1354 FILLER_0_106_881
*1355 FILLER_0_106_893
*1356 FILLER_0_106_905
*1357 FILLER_0_106_917
*1358 FILLER_0_106_923
*1359 FILLER_0_106_925
*1360 FILLER_0_106_937
*1361 FILLER_0_106_949
*1362 FILLER_0_106_961
*1363 FILLER_0_106_97
*1364 FILLER_0_106_973
*1365 FILLER_0_106_979