*SPEF "2.0"
*DESIGN "SKY130_OSU_RING_OSCILLATOR_MPR2AT_8_B0R2"
*DATE "Thu Nov  2 18:07:45 2023"
*VENDOR "Mentor Graphics Corp."
*PROGRAM "Calibre xRC"
*VERSION "v2023.2_27.15"
*DESIGN_FLOW "extraction"
*DIVIDER /
*DELIMITER :
*BUS_DELIMITER []
*T_UNIT 1 NS
*C_UNIT 1 PF
*R_UNIT 1 OHM
*L_UNIT 1 HENRY



// CIRCUIT TEMPERATURE 30C
// NOMINAL TEMPERATURE 30C

*PORTS 
 X5_Y1 B
 VDD B
 X4_Y1 B
 X3_Y1 B
 X2_Y1 B
 X1_Y1 B
 S5 B
 S4 B
 S3 B
 S2 B
 S1 B
 GND B

*D_NET X1/NET7 0.000573069
*CONN
*I x1/x1/MN8:s B 
*I x1/x1/MP8:s B 

*CAP
0 X1/NET7:1 GND:15 2.56516e-05 // $x=-1.482 $y=2.62 $x2=0.185 $y2=0.945
1 X1/NET7:6 GND:15 1.25213e-05 // $x=-1.404 $y=3.515 $x2=0.185 $y2=0.945
2 x1/x1/MN8:s GND:15 1.09469e-05 // $x=-1.41 $y=1.885 $x2=0.185 $y2=0.945
3 X1/NET7:1 GND:407 5.79787e-07 // $x=-1.482 $y=2.62 $x2=0.76 $y2=0.867
4 x1/x1/MN8:s GND:407 2.84627e-05 // $x=-1.41 $y=1.885 $x2=0.76 $y2=0.867
5 x1/x1/MN8:s x1/x1/MN8:d 1.42944e-05 // $x=-1.41 $y=1.885 $x2=-0.97 $y2=1.885
6 X1/NET7:2 X1/NET4:10 1.25613e-05 // $x=-1.482 $y=2.988 $x2=0.31 $y2=3.23
7 X1/NET7:2 X1/NET4:48 6.08861e-06 // $x=-1.482 $y=2.988 $x2=11.99 $y2=0.19
8 X1/NET7:6 X1/NET4:48 7.88555e-06 // $x=-1.404 $y=3.515 $x2=11.99 $y2=0.19
9 X1/NET7:6 X1/NET4:66 8.91641e-07 // $x=-1.404 $y=3.515 $x2=21.515 $y2=1.65
10 X1/NET7:1 X1/NET4:74 9.46881e-06 // $x=-1.482 $y=2.62 $x2=27.035 $y2=1.65
11 X1/NET7:2 X1/NET4:74 5.78796e-06 // $x=-1.482 $y=2.988 $x2=27.035 $y2=1.65
12 X1/NET7:6 X1/NET4:74 3.26709e-05 // $x=-1.404 $y=3.515 $x2=27.035 $y2=1.65
13 x1/x1/MN8:s X1/NET4:74 5.62269e-06 // $x=-1.41 $y=1.885 $x2=27.035 $y2=1.65
14 X1/NET7:6 X1/NET4:78 8.28643e-07 // $x=-1.404 $y=3.515 $x2=25.09 $y2=8.727
15 X1/NET7:6 X1/NET4:103 1.00187e-05 // $x=-1.404 $y=3.515 $x2=37.14 $y2=0.945
16 X1/NET7:2 X1/NET4:125 2.56075e-07 // $x=-1.482 $y=2.988 $x2=47.84 $y2=8.727
17 X1/NET7:6 X1/X1/13:9 5.67653e-06 // $x=-1.404 $y=3.515 $x2=0 $y2=0
18 X1/NET7:1 X1/X1/13:15 4.36295e-06 // $x=-1.482 $y=2.62 $x2=0.185 $y2=0.945
19 x1/x1/MN8:s X1/X1/13:15 4.15152e-07 // $x=-1.41 $y=1.885 $x2=0.185 $y2=0.945
20 X1/NET7:1 X1/X1/13:25 5.15926e-06 // $x=-1.482 $y=2.62 $x2=4.97 $y2=0.945
21 X1/NET7:2 X1/X1/13:25 6.02585e-06 // $x=-1.482 $y=2.988 $x2=4.97 $y2=0.945
22 X1/NET7:6 X1/X1/13:25 5.4069e-06 // $x=-1.404 $y=3.515 $x2=4.97 $y2=0.945
23 X1/NET7:1 X1/X1/13:39 5.96819e-07 // $x=-1.482 $y=2.62 $x2=8.59 $y2=8.727
24 x1/x1/MN8:s X1/X1/13:39 3.47911e-07 // $x=-1.41 $y=1.885 $x2=8.59 $y2=8.727
25 X1/NET7:6 x1/x1/MP8:g 1.09531e-05 // $x=-1.404 $y=3.515 $x2=18.275 $y2=3.245
26 X1/NET7:22 x1/x1/MP8:g 2.05769e-05 // $x=-1.439 $y=3.67 $x2=18.275 $y2=3.245
27 X1/NET7:1 X1/X1/13:60 3.81953e-06 // $x=-1.482 $y=2.62 $x2=18.365 $y2=1.375
28 X1/NET7:2 X1/X1/13:60 3.03369e-07 // $x=-1.482 $y=2.988 $x2=18.365 $y2=1.375
29 x1/x1/MN8:s X1/X1/13:60 1.573e-05 // $x=-1.41 $y=1.885 $x2=18.365 $y2=1.375
30 X1/NET7:2 X1/X1/13:81 5.27613e-07 // $x=-1.482 $y=2.988 $x2=26.515 $y2=8.727
31 X1/NET7:2 x1/x1/MP0:s 1.09447e-05 // $x=-1.482 $y=2.988 $x2=29.915 $y2=0.19
32 X1/NET7:6 x1/x1/MP0:s 5.68354e-06 // $x=-1.404 $y=3.515 $x2=29.915 $y2=0.19
33 X1/NET7:22 x1/x1/MP0:s 2.30913e-06 // $x=-1.439 $y=3.67 $x2=29.915 $y2=0.19
34 X1/NET7:1 X1/X1/9:10 2.90474e-07 // $x=-1.482 $y=2.62 $x2=0.31 $y2=3.23
35 X1/NET7:6 X1/X1/14:2 1.57671e-06 // $x=-1.404 $y=3.515 $x2=0.262 $y2=8.727
36 X1/NET7:1 VDD:2 1.57865e-06 // $x=-1.482 $y=2.62 $x2=0.262 $y2=8.727
37 X1/NET7:6 VDD:2 3.12723e-06 // $x=-1.404 $y=3.515 $x2=0.262 $y2=8.727
38 X1/NET7:22 VDD:2 4.5225e-06 // $x=-1.439 $y=3.67 $x2=0.262 $y2=8.727
39 X1/NET7:6 VDD:3 6.18904e-05 // $x=-1.404 $y=3.515 $x2=0 $y2=0
40 X1/NET7:22 VDD:3 4.38507e-06 // $x=-1.439 $y=3.67 $x2=0 $y2=0
41 X1/NET7:6 VDD:178 5.79972e-07 // $x=-1.404 $y=3.515 $x2=0 $y2=0
42 X1/NET7:22 VDD:178 1.08397e-05 // $x=-1.439 $y=3.67 $x2=0 $y2=0
43 X1/NET7:6 x1/x1/MP8:d 9.93626e-06 // $x=-1.404 $y=3.515 $x2=65.005 $y2=8.125
44 X1/NET7:22 x1/x1/MP8:d 2.99917e-06 // $x=-1.439 $y=3.67 $x2=65.005 $y2=8.125
45 X1/NET7:6 x1/x1/MP1:s 1.64573e-06 // $x=-1.404 $y=3.515 $x2=0 $y2=0
46 x1/x1/MN8:s 2.04535e-05 // $x=-1.41 $y=1.885
47 X1/NET7:22 3.14107e-05 // $x=-1.439 $y=3.67
48 X1/NET7:6 0.000105179 // $x=-1.404 $y=3.515
49 X1/NET7:2 1.50581e-05 // $x=-1.482 $y=2.988
50 X1/NET7:1 1.42192e-05 // $x=-1.482 $y=2.62

*RES
51 X1/NET7:22 x1/x1/MP8:s 4.87469 // $w=0.407 $lvl=li $x=-1.439 $y=3.605 $x2=-1.284 $y2=3.605 $l=0.155
52 X1/NET7:20 x1/x1/MN8:s 13.8182 // $w=0.264 $lvl=li $x=-1.362 $y=2.355 $x2=-1.362 $y2=2.07 $l=0.285
53 X1/NET7:8 X1/NET7:22 9.3 // $w=0.17 $lvl=mcon $x=-1.439 $y=3.67 $x2=-1.439 $y2=3.67 $l=0.17 $count=1
54 X1/NET7:6 X1/NET7:8 0.093599 // $w=0.207 $lvl=m1 $x=-1.415 $y=3.515 $x2=-1.415 $y2=3.67 $l=0.155
55 X1/NET7:4 X1/NET7:20 9.3 // $w=0.17 $lvl=mcon $x=-1.434 $y=2.355 $x2=-1.434 $y2=2.355 $l=0.17 $count=1
56 X1/NET7:2 X1/NET7:6 0.329593 // $w=0.207 $lvl=m1 $x=-1.482 $y=2.988 $x2=-1.415 $y2=3.515 $l=0.559498
57 X1/NET7:1 X1/NET7:4 0.178996 // $w=0.194 $lvl=m1 $x=-1.482 $y=2.62 $x2=-1.44 $y2=2.355 $l=0.285228
58 X1/NET7:1 X1/NET7:2 0.433962 // $w=0.106 $lvl=m1 $x=-1.482 $y=2.62 $x2=-1.482 $y2=2.988 $l=0.368

*END

*D_NET GND 0.0628107
*CONN
*P GND B 
*I x1/x1/MN1:g I 
*I x1/x1/MN6:g I 
*I x2/x1/MN1:g I 
*I x2/x1/MN6:g I 
*I x3/x1/MN1:g I 
*I x3/x1/MN6:g I 
*I x4/x1/MN1:g I 
*I x4/x1/MN6:g I 
*I x5/x1/MN1:g I 
*I x5/x1/MN6:g I 
*I x1/x1/MP1:g I 
*I x1/x1/MP5:g I 
*I x2/x1/MP1:g I 
*I x2/x1/MP5:g I 
*I x3/x1/MP1:g I 
*I x3/x1/MP5:g I 
*I x4/x1/MP1:g I 
*I x4/x1/MP5:g I 
*I x5/x1/MP1:g I 
*I x5/x1/MP5:g I 
*I x1/x1/MN8:d B 
*I x1/x1/MN0:s B 
*I x1/x1/MN4:s B 
*I x1/x1/MN7:d B 
*I x1/x1/MN2:s B 
*I x1/x1/MN17:s B 
*I x1/x1/MN16:d B 
*I x1/x1/MN11:d B 
*I x1/x1/MN14:s B 
*I x1/x8/MN2:s B 
*I x1/x1/MN15:d B 
*I x1/x8/MN0:s B 
*I x1/x1/MN12:s B 
*I x1/x1/MN13:d B 
*I x1/x1/MN10:d B 
*I x1/x1/MN9:s B 
*I x1/x3/MN2:s B 
*I x1/x2/MN2:s B 
*I x1/x4/MN0:s B 
*I x1/x6/MN0:s B 
*I x1/x5/MN0:s B 
*I x1/x7/MN0:s B 
*I x2/x1/MN8:d B 
*I x2/x1/MN0:s B 
*I x2/x1/MN4:s B 
*I x2/x1/MN7:d B 
*I x2/x1/MN2:s B 
*I x2/x1/MN17:s B 
*I x2/x1/MN16:d B 
*I x2/x1/MN11:d B 
*I x2/x1/MN14:s B 
*I x2/x8/MN2:s B 
*I x2/x1/MN15:d B 
*I x2/x8/MN0:s B 
*I x2/x1/MN12:s B 
*I x2/x1/MN13:d B 
*I x2/x1/MN10:d B 
*I x2/x1/MN9:s B 
*I x2/x3/MN2:s B 
*I x2/x2/MN2:s B 
*I x2/x4/MN0:s B 
*I x2/x6/MN0:s B 
*I x2/x5/MN0:s B 
*I x2/x7/MN0:s B 
*I x3/x1/MN8:d B 
*I x3/x1/MN0:s B 
*I x3/x1/MN4:s B 
*I x3/x1/MN7:d B 
*I x3/x1/MN2:s B 
*I x3/x1/MN17:s B 
*I x3/x1/MN16:d B 
*I x3/x1/MN11:d B 
*I x3/x1/MN14:s B 
*I x3/x8/MN2:s B 
*I x3/x1/MN15:d B 
*I x3/x8/MN0:s B 
*I x3/x1/MN12:s B 
*I x3/x1/MN13:d B 
*I x3/x1/MN10:d B 
*I x3/x1/MN9:s B 
*I x3/x3/MN2:s B 
*I x3/x2/MN2:s B 
*I x3/x4/MN0:s B 
*I x3/x6/MN0:s B 
*I x3/x5/MN0:s B 
*I x3/x7/MN0:s B 
*I x4/x1/MN8:d B 
*I x4/x1/MN0:s B 
*I x4/x1/MN4:s B 
*I x4/x1/MN7:d B 
*I x4/x1/MN2:s B 
*I x4/x1/MN17:s B 
*I x4/x1/MN16:d B 
*I x4/x1/MN11:d B 
*I x4/x1/MN14:s B 
*I x4/x8/MN2:s B 
*I x4/x1/MN15:d B 
*I x4/x8/MN0:s B 
*I x4/x1/MN12:s B 
*I x4/x1/MN13:d B 
*I x4/x1/MN10:d B 
*I x4/x1/MN9:s B 
*I x4/x3/MN2:s B 
*I x4/x2/MN2:s B 
*I x4/x4/MN0:s B 
*I x4/x6/MN0:s B 
*I x4/x5/MN0:s B 
*I x4/x7/MN0:s B 
*I x5/x1/MN8:d B 
*I x5/x1/MN0:s B 
*I x5/x1/MN4:s B 
*I x5/x1/MN7:d B 
*I x5/x1/MN2:s B 
*I x5/x1/MN17:s B 
*I x5/x1/MN16:d B 
*I x5/x1/MN11:d B 
*I x5/x1/MN14:s B 
*I x5/x8/MN2:s B 
*I x5/x1/MN15:d B 
*I x5/x8/MN0:s B 
*I x5/x1/MN12:s B 
*I x5/x1/MN13:d B 
*I x5/x1/MN10:d B 
*I x5/x1/MN9:s B 
*I x5/x3/MN2:s B 
*I x5/x2/MN2:s B 
*I x5/x4/MN0:s B 
*I x5/x6/MN0:s B 
*I x5/x5/MN0:s B 
*I x5/x7/MN0:s B 
*I x1/x8/MP1:s B 
*I x2/x8/MP1:s B 
*I x3/x8/MP1:s B 
*I x4/x8/MP1:s B 
*I x5/x8/MP1:s B 

*CAP
0 GND:15 X1/NET7:1 2.56516e-05 // $x=0.185 $y=0.945 $x2=-1.482 $y2=2.62
1 GND:15 X1/NET7:6 1.25213e-05 // $x=0.185 $y=0.945 $x2=-1.404 $y2=3.515
2 GND:15 x1/x1/MN8:s 1.09469e-05 // $x=0.185 $y=0.945 $x2=-1.41 $y2=1.885
3 GND:407 X1/NET7:1 5.79787e-07 // $x=0.76 $y=0.867 $x2=-1.482 $y2=2.62
4 GND:407 x1/x1/MN8:s 2.84627e-05 // $x=0.76 $y=0.867 $x2=-1.41 $y2=1.885
5 x1/x1/MN8:d x1/x1/MN8:s 1.42944e-05 // $x=-0.97 $y=1.885 $x2=-1.41 $y2=1.885
6 GND:34 X1/NET4:1 1.77029e-05 // $x=7.08 $y=8.575 $x2=-1.482 $y2=2.62
7 GND:35 X1/NET4:1 6.93924e-07 // $x=24.92 $y=8.727 $x2=-1.482 $y2=2.62
8 GND:432 X1/NET4:1 6.29273e-07 // $x=11.145 $y=8.727 $x2=-1.482 $y2=2.62
9 GND:449 X1/NET4:1 5.79243e-06 // $x=7.475 $y=6.4 $x2=-1.482 $y2=2.62
10 GND:34 X1/NET4:2 1.2401e-05 // $x=7.08 $y=8.575 $x2=-1.482 $y2=2.988
11 GND:449 X1/NET4:2 6.12582e-06 // $x=7.475 $y=6.4 $x2=-1.482 $y2=2.988
12 GND:11 X1/NET4:10 2.82052e-05 // $x=0.245 $y=3.23 $x2=0 $y2=0
13 GND:15 X1/NET4:10 1.82831e-05 // $x=0.185 $y=0.945 $x2=0 $y2=0
14 GND:227 X1/NET4:10 2.76815e-06 // $x=1.72 $y=2.765 $x2=0 $y2=0
15 GND:326 X1/NET4:10 3.51126e-06 // $x=0.415 $y=2.73 $x2=0 $y2=0
16 GND:327 X1/NET4:10 3.88285e-05 // $x=0.45 $y=2.796 $x2=0 $y2=0
17 GND:407 X1/NET4:10 4.52915e-07 // $x=0.76 $y=0.867 $x2=0 $y2=0
18 GND:935 X1/NET4:10 1.61178e-05 // $x=-0.084 $y=2.81 $x2=0 $y2=0
19 GND:1188 X1/NET4:10 2.67506e-07 // $x=-0.085 $y=2.645 $x2=0 $y2=0
20 GND:1239 X1/NET4:10 4.10295e-06 // $x=-0.084 $y=2.81 $x2=0 $y2=0
21 x1/x1/MN8:d X1/NET4:10 4.03559e-06 // $x=-0.97 $y=1.885 $x2=0 $y2=0
22 GND:11 X1/NET4:14 1.66805e-05 // $x=0.245 $y=3.23 $x2=0 $y2=0
23 GND:13 X1/NET4:14 5.44583e-07 // $x=0.35 $y=3.245 $x2=0 $y2=0
24 GND:327 X1/NET4:14 1.34324e-05 // $x=0.45 $y=2.796 $x2=0 $y2=0
25 GND:935 X1/NET4:14 3.32093e-07 // $x=-0.084 $y=2.81 $x2=0 $y2=0
26 GND:939 X1/NET4:14 6.59426e-07 // $x=1.775 $y=2.755 $x2=0 $y2=0
27 GND:14 X1/NET4:24 8.88808e-06 // $x=9.315 $y=0.945 $x2=0 $y2=0
28 GND:34 X1/NET4:28 1.3062e-05 // $x=7.08 $y=8.575 $x2=0 $y2=0
29 GND:35 X1/NET4:28 1.34882e-05 // $x=24.92 $y=8.727 $x2=0 $y2=0
30 GND:432 X1/NET4:28 3.25882e-06 // $x=11.145 $y=8.727 $x2=0 $y2=0
31 GND:449 X1/NET4:28 3.3604e-06 // $x=7.475 $y=6.4 $x2=0 $y2=0
32 GND:14 X1/NET4:40 0.000765414 // $x=9.315 $y=0.945 $x2=0 $y2=0
33 GND:236 X1/NET4:40 0.000124966 // $x=10.26 $y=0.945 $x2=0 $y2=0
34 GND:239 X1/NET4:40 1.14491e-05 // $x=16.22 $y=0.945 $x2=0 $y2=0
35 GND:34 X1/NET4:43 9.41049e-06 // $x=7.08 $y=8.575 $x2=0 $y2=0
36 GND:35 X1/NET4:43 5.2306e-06 // $x=24.92 $y=8.727 $x2=0 $y2=0
37 GND:15 X1/NET4:48 2.80562e-06 // $x=0.185 $y=0.945 $x2=0 $y2=0
38 GND:310 X1/NET4:48 8.55502e-07 // $x=0.45 $y=2.59 $x2=0 $y2=0
39 GND:326 X1/NET4:48 5.71757e-07 // $x=0.415 $y=2.73 $x2=0 $y2=0
40 x1/x1/MN8:d X1/NET4:48 3.40257e-06 // $x=-0.97 $y=1.885 $x2=0 $y2=0
41 GND:14 X1/NET4:54 7.7261e-05 // $x=9.315 $y=0.945 $x2=0 $y2=0
42 GND:15 X1/NET4:54 6.76758e-07 // $x=0.185 $y=0.945 $x2=0 $y2=0
43 GND:320 X1/NET4:54 9.99581e-06 // $x=0.44 $y=1.375 $x2=0 $y2=0
44 GND:327 X1/NET4:54 2.03467e-06 // $x=0.45 $y=2.796 $x2=0 $y2=0
45 GND:14 X1/NET4:57 0.000123924 // $x=9.315 $y=0.945 $x2=0 $y2=0
46 GND:14 X1/NET4:58 7.26125e-05 // $x=9.315 $y=0.945 $x2=0 $y2=0
47 GND:327 X1/NET4:60 1.45672e-05 // $x=0.45 $y=2.796 $x2=0 $y2=0
48 GND:11 X1/NET4:66 2.56992e-06 // $x=0.245 $y=3.23 $x2=0 $y2=0
49 GND:227 X1/NET4:66 1.1668e-06 // $x=1.72 $y=2.765 $x2=0 $y2=0
50 GND:327 X1/NET4:66 5.04505e-05 // $x=0.45 $y=2.796 $x2=0 $y2=0
51 GND:939 X1/NET4:66 2.24551e-06 // $x=1.775 $y=2.755 $x2=0 $y2=0
52 x1/x1/MP5:g X1/NET4:66 1.16785e-06 // $x=1.875 $y=3.635 $x2=0 $y2=0
53 GND:236 X1/NET4:71 4.4417e-05 // $x=10.26 $y=0.945 $x2=0 $y2=0
54 GND:239 X1/NET4:71 8.65801e-06 // $x=16.22 $y=0.945 $x2=0 $y2=0
55 GND:462 X1/NET4:71 3.86728e-06 // $x=11.145 $y=0.152 $x2=0 $y2=0
56 GND:962 X1/NET4:71 4.34486e-06 // $x=10.26 $y=0.867 $x2=0 $y2=0
57 GND:15 X1/NET4:73 3.26842e-05 // $x=0.185 $y=0.945 $x2=0 $y2=0
58 GND:320 X1/NET4:73 3.80656e-07 // $x=0.44 $y=1.375 $x2=0 $y2=0
59 GND:15 X1/NET4:74 3.56539e-05 // $x=0.185 $y=0.945 $x2=0 $y2=0
60 GND:310 X1/NET4:74 2.00236e-05 // $x=0.45 $y=2.59 $x2=0 $y2=0
61 GND:320 X1/NET4:74 9.65736e-06 // $x=0.44 $y=1.375 $x2=0 $y2=0
62 GND:326 X1/NET4:74 6.40156e-05 // $x=0.415 $y=2.73 $x2=0 $y2=0
63 GND:327 X1/NET4:74 4.69063e-07 // $x=0.45 $y=2.796 $x2=0 $y2=0
64 x1/x1/MN8:d X1/NET4:74 1.12968e-06 // $x=-0.97 $y=1.885 $x2=0 $y2=0
65 GND:14 X1/NET4:75 3.94688e-05 // $x=9.315 $y=0.945 $x2=0 $y2=0
66 GND:15 X1/NET4:75 4.82075e-05 // $x=0.185 $y=0.945 $x2=0 $y2=0
67 GND:320 X1/NET4:75 2.37387e-05 // $x=0.44 $y=1.375 $x2=0 $y2=0
68 GND:326 X1/NET4:75 3.21732e-05 // $x=0.415 $y=2.73 $x2=0 $y2=0
69 GND:327 X1/NET4:75 9.30193e-06 // $x=0.45 $y=2.796 $x2=0 $y2=0
70 GND:14 X1/NET4:77 2.04196e-05 // $x=9.315 $y=0.945 $x2=0 $y2=0
71 GND:320 X1/NET4:77 8.65045e-07 // $x=0.44 $y=1.375 $x2=0 $y2=0
72 GND:327 X1/NET4:77 1.18778e-06 // $x=0.45 $y=2.796 $x2=0 $y2=0
73 GND:14 X1/NET4:78 2.32798e-05 // $x=9.315 $y=0.945 $x2=0 $y2=0
74 GND:310 X1/NET4:78 3.56244e-05 // $x=0.45 $y=2.59 $x2=0 $y2=0
75 GND:320 X1/NET4:78 1.0017e-05 // $x=0.44 $y=1.375 $x2=0 $y2=0
76 GND:326 X1/NET4:78 4.13587e-05 // $x=0.415 $y=2.73 $x2=0 $y2=0
77 GND:327 X1/NET4:78 6.3442e-05 // $x=0.45 $y=2.796 $x2=0 $y2=0
78 GND:939 X1/NET4:78 4.39181e-07 // $x=1.775 $y=2.755 $x2=0 $y2=0
79 x1/x1/MN4:s X1/NET4:78 3.43246e-06 // $x=0.55 $y=1.885 $x2=0 $y2=0
80 x1/x8/MP1:s X1/NET4:86 1.07518e-05 // $x=7.295 $y=5.015 $x2=0 $y2=0
81 GND:236 X1/NET4:88 1.30133e-05 // $x=10.26 $y=0.945 $x2=0 $y2=0
82 x1/x1/MN9:s X1/NET4:88 3.33447e-06 // $x=9.27 $y=1.885 $x2=0 $y2=0
83 GND:15 X1/NET4:93 8.75906e-05 // $x=0.185 $y=0.945 $x2=0 $y2=0
84 GND:320 X1/NET4:93 1.49645e-06 // $x=0.44 $y=1.375 $x2=0 $y2=0
85 GND:14 X1/NET4:99 3.03443e-05 // $x=9.315 $y=0.945 $x2=0 $y2=0
86 GND:327 X1/NET4:103 1.04481e-05 // $x=0.45 $y=2.796 $x2=0 $y2=0
87 GND:14 X1/NET4:104 3.87805e-05 // $x=9.315 $y=0.945 $x2=0 $y2=0
88 x1/x1/MN7:d X1/NET4:104 7.83245e-07 // $x=2.43 $y=1.885 $x2=0 $y2=0
89 GND:33 X1/NET4:108 9.10402e-06 // $x=7.08 $y=6.485 $x2=0 $y2=0
90 GND:34 X1/NET4:108 1.37053e-05 // $x=7.08 $y=8.575 $x2=0 $y2=0
91 GND:965 X1/NET4:108 7.91868e-06 // $x=7.447 $y=6.245 $x2=0 $y2=0
92 GND:34 X1/NET4:119 4.33781e-07 // $x=7.08 $y=8.575 $x2=0 $y2=0
93 GND:35 X1/NET4:119 2.15467e-06 // $x=24.92 $y=8.727 $x2=0 $y2=0
94 GND:432 X1/NET4:119 1.39846e-05 // $x=11.145 $y=8.727 $x2=0 $y2=0
95 GND:447 X1/NET4:119 1.48904e-05 // $x=7.475 $y=7.855 $x2=0 $y2=0
96 GND:449 X1/NET4:119 1.74659e-05 // $x=7.475 $y=6.4 $x2=0 $y2=0
97 GND:15 X1/NET4:125 2.73579e-06 // $x=0.185 $y=0.945 $x2=0 $y2=0
98 GND:407 X1/NET4:125 2.43336e-06 // $x=0.76 $y=0.867 $x2=0 $y2=0
99 GND:935 X1/NET4:125 1.36353e-05 // $x=-0.084 $y=2.81 $x2=0 $y2=0
100 GND:1188 X1/NET4:125 3.08498e-07 // $x=-0.085 $y=2.645 $x2=0 $y2=0
101 GND:1239 X1/NET4:125 6.56665e-06 // $x=-0.084 $y=2.81 $x2=0 $y2=0
102 GND:327 X1/NET4:129 2.60356e-06 // $x=0.45 $y=2.796 $x2=0 $y2=0
103 GND:406 X1/NET4:129 1.77963e-06 // $x=2.51 $y=0.867 $x2=0 $y2=0
104 GND:407 X1/NET4:129 6.43799e-07 // $x=0.76 $y=0.867 $x2=0 $y2=0
105 GND:935 X1/NET4:129 9.44517e-06 // $x=-0.084 $y=2.81 $x2=0 $y2=0
106 GND:1188 X1/NET4:129 2.77579e-07 // $x=-0.085 $y=2.645 $x2=0 $y2=0
107 GND:1239 X1/NET4:129 3.42054e-06 // $x=-0.084 $y=2.81 $x2=0 $y2=0
108 x1/x1/MN4:s X1/NET4:129 8.34266e-06 // $x=0.55 $y=1.885 $x2=0 $y2=0
109 GND:14 X1/NET4:133 1.41806e-06 // $x=9.315 $y=0.945 $x2=0 $y2=0
110 GND:227 X1/NET4:133 4.60533e-06 // $x=1.72 $y=2.765 $x2=0 $y2=0
111 GND:327 X1/NET4:133 6.7231e-06 // $x=0.45 $y=2.796 $x2=0 $y2=0
112 GND:406 X1/NET4:133 3.47996e-06 // $x=2.51 $y=0.867 $x2=0 $y2=0
113 GND:935 X1/NET4:133 9.68329e-07 // $x=-0.084 $y=2.81 $x2=0 $y2=0
114 GND:939 X1/NET4:133 2.58955e-05 // $x=1.775 $y=2.755 $x2=0 $y2=0
115 GND:1193 X1/NET4:133 3.64521e-07 // $x=1.875 $y=2.645 $x2=0 $y2=0
116 GND:1241 X1/NET4:133 1.93927e-06 // $x=1.875 $y=2.81 $x2=0 $y2=0
117 GND:14 X1/NET4:137 1.93332e-06 // $x=9.315 $y=0.945 $x2=0 $y2=0
118 GND:406 X1/NET4:137 5.03792e-07 // $x=2.51 $y=0.867 $x2=0 $y2=0
119 GND:939 X1/NET4:137 1.05476e-05 // $x=1.775 $y=2.755 $x2=0 $y2=0
120 GND:962 X1/NET4:137 3.59309e-07 // $x=10.26 $y=0.867 $x2=0 $y2=0
121 GND:1241 X1/NET4:137 1.93927e-06 // $x=1.875 $y=2.81 $x2=0 $y2=0
122 x1/x1/MN7:d X1/NET4:137 9.14355e-06 // $x=2.43 $y=1.885 $x2=0 $y2=0
123 GND:939 X1/NET4:141 4.92814e-07 // $x=1.775 $y=2.755 $x2=0 $y2=0
124 GND:962 X1/NET4:145 2.14676e-06 // $x=10.26 $y=0.867 $x2=0 $y2=0
125 x1/x1/MP1:g x1/x1/MP0:g 5.7286e-05 // $x=-0.085 $y=3.635 $x2=0 $y2=0
126 GND:11 x1/x1/MP4:g 6.34925e-07 // $x=0.245 $y=3.23 $x2=0 $y2=0
127 GND:327 x1/x1/MP4:g 9.5494e-07 // $x=0.45 $y=2.796 $x2=0 $y2=0
128 GND:935 x1/x1/MP4:g 3.02132e-06 // $x=-0.084 $y=2.81 $x2=0 $y2=0
129 x1/x1/MP1:g x1/x1/MP4:g 1.89747e-05 // $x=-0.085 $y=3.635 $x2=0 $y2=0
130 x1/x1/MP5:g x1/x1/MP4:g 3.3485e-06 // $x=1.875 $y=3.635 $x2=0 $y2=0
131 GND:939 x1/x1/MP7:g 2.42422e-07 // $x=1.775 $y=2.755 $x2=0 $y2=0
132 x1/x1/MP5:g x1/x1/MP7:g 5.74841e-05 // $x=1.875 $y=3.635 $x2=0 $y2=0
133 x1/x1/MP5:g x1/x1/MP6:g 5.90703e-05 // $x=1.875 $y=3.635 $x2=0 $y2=0
134 GND:15 X1/NET4:160 4.90953e-06 // $x=0.185 $y=0.945 $x2=0 $y2=0
135 GND:407 X1/NET4:160 6.63588e-06 // $x=0.76 $y=0.867 $x2=0 $y2=0
136 GND:1188 X1/NET4:160 4.00986e-05 // $x=-0.085 $y=2.645 $x2=0 $y2=0
137 x1/x1/MN8:d X1/NET4:160 5.84914e-06 // $x=-0.97 $y=1.885 $x2=0 $y2=0
138 GND:14 X1/NET4:165 4.86809e-06 // $x=9.315 $y=0.945 $x2=0 $y2=0
139 GND:310 X1/NET4:165 2.16304e-06 // $x=0.45 $y=2.59 $x2=0 $y2=0
140 GND:327 X1/NET4:165 3.24766e-06 // $x=0.45 $y=2.796 $x2=0 $y2=0
141 GND:406 X1/NET4:165 6.65717e-06 // $x=2.51 $y=0.867 $x2=0 $y2=0
142 GND:1188 X1/NET4:165 1.20924e-05 // $x=-0.085 $y=2.645 $x2=0 $y2=0
143 GND:1193 X1/NET4:165 2.14388e-06 // $x=1.875 $y=2.645 $x2=0 $y2=0
144 x1/x1/MN4:s X1/NET4:165 1.12862e-05 // $x=0.55 $y=1.885 $x2=0 $y2=0
145 GND:14 X1/NET4:170 3.95519e-06 // $x=9.315 $y=0.945 $x2=0 $y2=0
146 GND:406 X1/NET4:170 6.55962e-06 // $x=2.51 $y=0.867 $x2=0 $y2=0
147 GND:1193 X1/NET4:170 3.89253e-05 // $x=1.875 $y=2.645 $x2=0 $y2=0
148 GND:14 X1/NET4:175 5.2612e-06 // $x=9.315 $y=0.945 $x2=0 $y2=0
149 GND:406 X1/NET4:175 6.67751e-06 // $x=2.51 $y=0.867 $x2=0 $y2=0
150 GND:1193 X1/NET4:175 4.07251e-05 // $x=1.875 $y=2.645 $x2=0 $y2=0
151 x1/x1/MN7:d X1/NET4:175 1.17647e-05 // $x=2.43 $y=1.885 $x2=0 $y2=0
152 GND:14 X1/NET4:180 4.6556e-06 // $x=9.315 $y=0.945 $x2=0 $y2=0
153 GND:962 X1/NET4:180 4.85597e-06 // $x=10.26 $y=0.867 $x2=0 $y2=0
154 x1/x1/MN7:d X1/NET4:180 2.73374e-06 // $x=2.43 $y=1.885 $x2=0 $y2=0
155 GND:14 X1/NET4:185 3.87479e-06 // $x=9.315 $y=0.945 $x2=0 $y2=0
156 GND:962 X1/NET4:185 6.66472e-06 // $x=10.26 $y=0.867 $x2=0 $y2=0
157 x1/x1/MN2:s X1/NET4:185 8.49098e-06 // $x=3.91 $y=1.885 $x2=0 $y2=0
158 GND:15 X1/NET4:191 4.57056e-07 // $x=0.185 $y=0.945 $x2=0 $y2=0
159 GND:407 X1/NET4:191 9.74713e-07 // $x=0.76 $y=0.867 $x2=0 $y2=0
160 GND:935 X1/NET4:191 1.83322e-06 // $x=-0.084 $y=2.81 $x2=0 $y2=0
161 GND:1239 X1/NET4:191 4.31894e-05 // $x=-0.084 $y=2.81 $x2=0 $y2=0
162 GND:327 X1/NET4:193 3.09799e-06 // $x=0.45 $y=2.796 $x2=0 $y2=0
163 GND:406 X1/NET4:193 1.14932e-06 // $x=2.51 $y=0.867 $x2=0 $y2=0
164 GND:935 X1/NET4:193 1.54602e-06 // $x=-0.084 $y=2.81 $x2=0 $y2=0
165 GND:1239 X1/NET4:193 6.58583e-06 // $x=-0.084 $y=2.81 $x2=0 $y2=0
166 GND:227 X1/NET4:195 3.46925e-06 // $x=1.72 $y=2.765 $x2=0 $y2=0
167 GND:327 X1/NET4:195 1.11454e-06 // $x=0.45 $y=2.796 $x2=0 $y2=0
168 GND:406 X1/NET4:195 8.19315e-07 // $x=2.51 $y=0.867 $x2=0 $y2=0
169 GND:939 X1/NET4:195 6.66247e-06 // $x=1.775 $y=2.755 $x2=0 $y2=0
170 GND:1241 X1/NET4:195 4.24258e-05 // $x=1.875 $y=2.81 $x2=0 $y2=0
171 GND:14 X1/NET4:197 4.54061e-07 // $x=9.315 $y=0.945 $x2=0 $y2=0
172 GND:406 X1/NET4:197 1.04085e-06 // $x=2.51 $y=0.867 $x2=0 $y2=0
173 GND:939 X1/NET4:197 6.5299e-06 // $x=1.775 $y=2.755 $x2=0 $y2=0
174 GND:1241 X1/NET4:197 5.07388e-05 // $x=1.875 $y=2.81 $x2=0 $y2=0
175 GND:14 X1/NET4:201 2.86413e-07 // $x=9.315 $y=0.945 $x2=0 $y2=0
176 GND:962 X1/NET4:201 1.38935e-06 // $x=10.26 $y=0.867 $x2=0 $y2=0
177 GND:33 x1/x8/MP1:d 7.00818e-06 // $x=7.08 $y=6.485 $x2=0 $y2=0
178 GND:34 x1/x8/MP1:d 4.33781e-07 // $x=7.08 $y=8.575 $x2=0 $y2=0
179 GND:449 x1/x8/MP1:d 4.47144e-06 // $x=7.475 $y=6.4 $x2=0 $y2=0
180 GND:965 x1/x8/MP1:d 6.99983e-05 // $x=7.447 $y=6.245 $x2=0 $y2=0
181 x1/x8/MP1:s x1/x8/MP1:d 5.35351e-05 // $x=7.295 $y=5.015 $x2=0 $y2=0
182 GND:14 X1/NET1:5 1.6958e-05 // $x=9.315 $y=0.945 $x2=-1.415 $y2=3.515
183 GND:962 X1/NET1:5 6.02824e-07 // $x=10.26 $y=0.867 $x2=-1.415 $y2=3.515
184 GND:239 X1/NET1:9 1.75846e-05 // $x=16.22 $y=0.945 $x2=0 $y2=0
185 x1/x3/MN2:s X1/NET1:9 1.1132e-06 // $x=11.105 $y=0.575 $x2=0 $y2=0
186 x1/x1/MN9:s X1/NET1:10 3.08184e-06 // $x=9.27 $y=1.885 $x2=0 $y2=0
187 GND:33 X1/NET1:21 6.20714e-07 // $x=7.08 $y=6.485 $x2=-1.439 $y2=3.605
188 GND:14 X1/NET1:33 1.17141e-05 // $x=9.315 $y=0.945 $x2=0 $y2=0
189 GND:5 X1/NET1:34 2.15962e-05 // $x=6.995 $y=8.727 $x2=0 $y2=0
190 GND:312 X1/NET1:59 2.06714e-07 // $x=18.375 $y=2.59 $x2=0 $y2=0
191 GND:35 X1/NET1:71 2.86039e-06 // $x=24.92 $y=8.727 $x2=0 $y2=0
192 GND:476 X1/NET1:71 1.21387e-05 // $x=13.89 $y=8.727 $x2=0 $y2=0
193 GND:490 X1/NET1:71 1.28014e-06 // $x=14.88 $y=8.727 $x2=0 $y2=0
194 x1/x2/MN2:s X1/NET1:71 1.87278e-06 // $x=11.105 $y=7.755 $x2=0 $y2=0
195 GND:14 x1/x1/MN17:d 7.43555e-06 // $x=9.315 $y=0.945 $x2=0 $y2=0
196 GND:962 x1/x1/MN17:d 2.97567e-05 // $x=10.26 $y=0.867 $x2=0 $y2=0
197 x1/x1/MN2:s x1/x1/MN17:d 1.63542e-05 // $x=3.91 $y=1.885 $x2=0 $y2=0
198 x1/x1/MN16:d x1/x1/MN17:d 1.12307e-05 // $x=4.87 $y=1.885 $x2=0 $y2=0
199 GND:239 x1/x3/MN1:s 2.18283e-06 // $x=16.22 $y=0.945 $x2=0 $y2=0
200 GND:472 x1/x3/MN1:s 1.1298e-05 // $x=13.89 $y=0.152 $x2=0 $y2=0
201 GND:488 x1/x3/MN1:s 1.33082e-06 // $x=14.88 $y=0.152 $x2=0 $y2=0
202 x1/x4/MN0:s x1/x3/MN1:s 8.67204e-06 // $x=13.85 $y=0.575 $x2=0 $y2=0
203 GND:14 x1/x1/MP16:s 3.66346e-07 // $x=9.315 $y=0.945 $x2=0 $y2=0
204 x1/x1/MN16:d x1/x1/MP16:s 2.90074e-06 // $x=4.87 $y=1.885 $x2=0 $y2=0
205 GND:14 X1/NET8:2 2.45275e-05 // $x=9.315 $y=0.945 $x2=-1.482 $y2=2.988
206 GND:962 X1/NET8:2 8.80478e-07 // $x=10.26 $y=0.867 $x2=-1.482 $y2=2.988
207 x1/x1/MN11:d X1/NET8:2 9.14281e-07 // $x=5.87 $y=1.885 $x2=-1.482 $y2=2.988
208 GND:14 X1/NET8:12 1.85232e-05 // $x=9.315 $y=0.945 $x2=0 $y2=0
209 GND:14 x1/x1/MN14:d 6.35863e-06 // $x=9.315 $y=0.945 $x2=-1.41 $y2=3.135
210 GND:962 x1/x1/MN14:d 3.24283e-05 // $x=10.26 $y=0.867 $x2=-1.41 $y2=3.135
211 x1/x1/MN11:d x1/x1/MN14:d 7.83803e-06 // $x=5.87 $y=1.885 $x2=-1.41 $y2=3.135
212 x1/x1/MN15:d x1/x1/MN14:d 7.82557e-06 // $x=6.83 $y=1.885 $x2=-1.41 $y2=3.135
213 x1/x1/MN12:s x1/x1/MN14:d 3.53e-07 // $x=7.39 $y=1.885 $x2=-1.41 $y2=3.135
214 GND:14 X1/X1/2:4 3.74904e-06 // $x=9.315 $y=0.945 $x2=-1.434 $y2=2.355
215 GND:14 X1/X1/2:6 3.6621e-05 // $x=9.315 $y=0.945 $x2=-1.404 $y2=3.515
216 x1/x1/MN2:s X1/X1/2:6 2.52683e-06 // $x=3.91 $y=1.885 $x2=-1.404 $y2=3.515
217 GND:14 X1/X1/2:10 1.05748e-06 // $x=9.315 $y=0.945 $x2=0 $y2=0
218 GND:14 X1/X1/2:14 1.76526e-06 // $x=9.315 $y=0.945 $x2=0 $y2=0
219 GND:310 X1/X1/2:20 3.30842e-07 // $x=0.45 $y=2.59 $x2=-1.434 $y2=2.355
220 GND:14 X1/X1/2:24 3.5314e-07 // $x=9.315 $y=0.945 $x2=0 $y2=0
221 x1/x1/MN2:s X1/X1/2:30 9.51574e-07 // $x=3.91 $y=1.885 $x2=0 $y2=0
222 GND:14 X1/X1/2:31 7.88399e-05 // $x=9.315 $y=0.945 $x2=0 $y2=0
223 x1/x1/MN16:d X1/X1/2:31 3.90188e-07 // $x=4.87 $y=1.885 $x2=0 $y2=0
224 x1/x1/MN11:d X1/X1/2:31 3.22629e-06 // $x=5.87 $y=1.885 $x2=0 $y2=0
225 x1/x1/MN15:d X1/X1/2:31 4.05643e-06 // $x=6.83 $y=1.885 $x2=0 $y2=0
226 x1/x1/MN12:s X1/X1/2:31 3.27654e-06 // $x=7.39 $y=1.885 $x2=0 $y2=0
227 GND:14 X1/X1/2:41 2.71996e-06 // $x=9.315 $y=0.945 $x2=0 $y2=0
228 x1/x1/MN2:s X1/X1/2:41 2.76676e-07 // $x=3.91 $y=1.885 $x2=0 $y2=0
229 x1/x1/MN16:d X1/X1/2:41 9.3184e-07 // $x=4.87 $y=1.885 $x2=0 $y2=0
230 GND:14 X1/X1/2:49 8.66051e-07 // $x=9.315 $y=0.945 $x2=0 $y2=0
231 x1/x1/MN2:s X1/X1/2:49 3.33793e-06 // $x=3.91 $y=1.885 $x2=0 $y2=0
232 GND:14 X1/X1/2:60 1.21125e-06 // $x=9.315 $y=0.945 $x2=0 $y2=0
233 GND:962 X1/X1/2:60 9.73821e-07 // $x=10.26 $y=0.867 $x2=0 $y2=0
234 GND:14 X1/X1/2:63 5.04629e-07 // $x=9.315 $y=0.945 $x2=0 $y2=0
235 GND:962 X1/X1/2:63 4.13611e-07 // $x=10.26 $y=0.867 $x2=0 $y2=0
236 GND:14 X1/X1/2:67 3.59279e-06 // $x=9.315 $y=0.945 $x2=0 $y2=0
237 GND:962 X1/X1/2:67 2.33275e-06 // $x=10.26 $y=0.867 $x2=0 $y2=0
238 GND:14 X1/X1/2:76 3.48495e-06 // $x=9.315 $y=0.945 $x2=0 $y2=0
239 GND:962 X1/X1/2:76 6.72178e-06 // $x=10.26 $y=0.867 $x2=0 $y2=0
240 x1/x1/MN16:d X1/X1/2:76 1.11202e-05 // $x=4.87 $y=1.885 $x2=0 $y2=0
241 GND:14 X1/X1/2:81 4.71237e-06 // $x=9.315 $y=0.945 $x2=0 $y2=0
242 GND:962 X1/X1/2:81 6.10095e-06 // $x=10.26 $y=0.867 $x2=0 $y2=0
243 x1/x1/MN12:s X1/X1/2:81 1.01103e-05 // $x=7.39 $y=1.885 $x2=0 $y2=0
244 GND:14 X1/X1/2:86 6.57323e-06 // $x=9.315 $y=0.945 $x2=0 $y2=0
245 GND:962 X1/X1/2:86 6.67363e-06 // $x=10.26 $y=0.867 $x2=0 $y2=0
246 x1/x1/MN9:s X1/X1/2:86 1.17796e-05 // $x=9.27 $y=1.885 $x2=0 $y2=0
247 GND:14 X1/X1/2:92 5.69308e-07 // $x=9.315 $y=0.945 $x2=0 $y2=0
248 GND:962 X1/X1/2:92 6.2399e-07 // $x=10.26 $y=0.867 $x2=0 $y2=0
249 GND:962 X1/X1/2:94 7.04924e-07 // $x=10.26 $y=0.867 $x2=0 $y2=0
250 GND:14 X1/X1/2:96 5.63269e-07 // $x=9.315 $y=0.945 $x2=0 $y2=0
251 GND:962 X1/X1/2:96 9.08958e-07 // $x=10.26 $y=0.867 $x2=0 $y2=0
252 GND:14 x1/x1/MN3:d 1.68447e-05 // $x=9.315 $y=0.945 $x2=0 $y2=0
253 GND:962 x1/x1/MN3:d 5.03988e-05 // $x=10.26 $y=0.867 $x2=0 $y2=0
254 x1/x1/MN7:d x1/x1/MN3:d 1.51799e-05 // $x=2.43 $y=1.885 $x2=0 $y2=0
255 x1/x1/MN2:s x1/x1/MN3:d 6.14042e-06 // $x=3.91 $y=1.885 $x2=0 $y2=0
256 GND:14 X1/NET9:4 6.2938e-05 // $x=9.315 $y=0.945 $x2=-1.434 $y2=2.355
257 GND:962 X1/NET9:4 1.48887e-06 // $x=10.26 $y=0.867 $x2=-1.434 $y2=2.355
258 x1/x1/MN13:d X1/NET9:4 3.09477e-06 // $x=8.31 $y=1.885 $x2=-1.434 $y2=2.355
259 x1/x1/MN9:s X1/NET9:4 6.12204e-06 // $x=9.27 $y=1.885 $x2=-1.434 $y2=2.355
260 GND:14 x1/x1/MN10:s 6.11418e-06 // $x=9.315 $y=0.945 $x2=-1.284 $y2=3.605
261 GND:962 x1/x1/MN10:s 1.96271e-05 // $x=10.26 $y=0.867 $x2=-1.284 $y2=3.605
262 x1/x1/MN13:d x1/x1/MN10:s 8.30482e-06 // $x=8.31 $y=1.885 $x2=-1.284 $y2=3.605
263 x1/x1/MN9:s x1/x1/MN10:s 1.05605e-05 // $x=9.27 $y=1.885 $x2=-1.284 $y2=3.605
264 GND:58 X2/NET7:1 2.48154e-05 // $x=18.11 $y=0.945 $x2=-1.482 $y2=2.62
265 GND:513 X2/NET7:1 5.79787e-07 // $x=18.685 $y=0.867 $x2=-1.482 $y2=2.62
266 GND:58 X2/NET7:6 1.25213e-05 // $x=18.11 $y=0.945 $x2=-1.404 $y2=3.515
267 GND:58 x2/x1/MN8:s 1.01689e-05 // $x=18.11 $y=0.945 $x2=-1.41 $y2=1.885
268 GND:513 x2/x1/MN8:s 2.78736e-05 // $x=18.685 $y=0.867 $x2=-1.41 $y2=1.885
269 x2/x1/MN8:d x2/x1/MN8:s 1.41527e-05 // $x=16.955 $y=1.885 $x2=-1.41 $y2=1.885
270 GND:76 X2/NET4:1 1.77029e-05 // $x=25.005 $y=8.575 $x2=-1.482 $y2=2.62
271 GND:77 X2/NET4:1 4.30993e-07 // $x=42.845 $y=8.727 $x2=-1.482 $y2=2.62
272 GND:538 X2/NET4:1 6.29273e-07 // $x=29.07 $y=8.727 $x2=-1.482 $y2=2.62
273 GND:555 X2/NET4:1 5.80309e-06 // $x=25.4 $y=6.4 $x2=-1.482 $y2=2.62
274 GND:76 X2/NET4:2 1.30614e-05 // $x=25.005 $y=8.575 $x2=-1.482 $y2=2.988
275 GND:555 X2/NET4:2 6.12582e-06 // $x=25.4 $y=6.4 $x2=-1.482 $y2=2.988
276 GND:54 X2/NET4:10 2.72396e-05 // $x=18.17 $y=3.23 $x2=0 $y2=0
277 GND:58 X2/NET4:10 1.80456e-05 // $x=18.11 $y=0.945 $x2=0 $y2=0
278 GND:245 X2/NET4:10 2.76815e-06 // $x=19.645 $y=2.765 $x2=0 $y2=0
279 GND:337 X2/NET4:10 4.81193e-06 // $x=18.34 $y=2.73 $x2=0 $y2=0
280 GND:338 X2/NET4:10 3.75458e-05 // $x=18.375 $y=2.796 $x2=0 $y2=0
281 GND:513 X2/NET4:10 4.52915e-07 // $x=18.685 $y=0.867 $x2=0 $y2=0
282 GND:983 X2/NET4:10 1.7144e-05 // $x=17.84 $y=2.81 $x2=0 $y2=0
283 GND:1198 X2/NET4:10 4.01939e-07 // $x=17.84 $y=2.645 $x2=0 $y2=0
284 GND:1243 X2/NET4:10 9.53967e-06 // $x=17.84 $y=2.81 $x2=0 $y2=0
285 x2/x1/MN8:d X2/NET4:10 4.03559e-06 // $x=16.955 $y=1.885 $x2=0 $y2=0
286 GND:54 X2/NET4:14 1.66805e-05 // $x=18.17 $y=3.23 $x2=0 $y2=0
287 GND:56 X2/NET4:14 5.44583e-07 // $x=18.275 $y=3.245 $x2=0 $y2=0
288 GND:338 X2/NET4:14 1.26442e-05 // $x=18.375 $y=2.796 $x2=0 $y2=0
289 GND:983 X2/NET4:14 3.32093e-07 // $x=17.84 $y=2.81 $x2=0 $y2=0
290 GND:987 X2/NET4:14 6.59408e-07 // $x=19.7 $y=2.755 $x2=0 $y2=0
291 GND:57 X2/NET4:24 8.81118e-06 // $x=27.24 $y=0.945 $x2=0 $y2=0
292 GND:1010 X2/NET4:24 2.59641e-07 // $x=28.185 $y=0.867 $x2=0 $y2=0
293 GND:76 X2/NET4:28 1.33559e-05 // $x=25.005 $y=8.575 $x2=0 $y2=0
294 GND:77 X2/NET4:28 8.48754e-06 // $x=42.845 $y=8.727 $x2=0 $y2=0
295 GND:538 X2/NET4:28 3.25882e-06 // $x=29.07 $y=8.727 $x2=0 $y2=0
296 GND:555 X2/NET4:28 5.84642e-06 // $x=25.4 $y=6.4 $x2=0 $y2=0
297 GND:57 X2/NET4:40 0.000765414 // $x=27.24 $y=0.945 $x2=0 $y2=0
298 GND:254 X2/NET4:40 0.000124966 // $x=28.185 $y=0.945 $x2=0 $y2=0
299 GND:257 X2/NET4:40 1.14491e-05 // $x=34.145 $y=0.945 $x2=0 $y2=0
300 GND:76 X2/NET4:43 9.41049e-06 // $x=25.005 $y=8.575 $x2=0 $y2=0
301 GND:58 X2/NET4:48 2.80562e-06 // $x=18.11 $y=0.945 $x2=0 $y2=0
302 GND:312 X2/NET4:48 8.55502e-07 // $x=18.375 $y=2.59 $x2=0 $y2=0
303 GND:337 X2/NET4:48 5.71757e-07 // $x=18.34 $y=2.73 $x2=0 $y2=0
304 x2/x1/MN8:d X2/NET4:48 3.40257e-06 // $x=16.955 $y=1.885 $x2=0 $y2=0
305 GND:57 X2/NET4:54 7.7261e-05 // $x=27.24 $y=0.945 $x2=0 $y2=0
306 GND:331 X2/NET4:54 9.99581e-06 // $x=18.365 $y=1.375 $x2=0 $y2=0
307 GND:338 X2/NET4:54 2.03465e-06 // $x=18.375 $y=2.796 $x2=0 $y2=0
308 GND:57 X2/NET4:57 0.000123924 // $x=27.24 $y=0.945 $x2=0 $y2=0
309 GND:57 X2/NET4:58 7.24683e-05 // $x=27.24 $y=0.945 $x2=0 $y2=0
310 GND:338 X2/NET4:60 1.43504e-05 // $x=18.375 $y=2.796 $x2=0 $y2=0
311 GND:54 X2/NET4:66 2.56992e-06 // $x=18.17 $y=3.23 $x2=0 $y2=0
312 GND:245 X2/NET4:66 1.8319e-06 // $x=19.645 $y=2.765 $x2=0 $y2=0
313 GND:338 X2/NET4:66 5.44022e-05 // $x=18.375 $y=2.796 $x2=0 $y2=0
314 GND:987 X2/NET4:66 2.10812e-06 // $x=19.7 $y=2.755 $x2=0 $y2=0
315 x2/x1/MP5:g X2/NET4:66 7.24702e-07 // $x=19.8 $y=3.635 $x2=0 $y2=0
316 GND:254 X2/NET4:71 4.4417e-05 // $x=28.185 $y=0.945 $x2=0 $y2=0
317 GND:257 X2/NET4:71 8.65801e-06 // $x=34.145 $y=0.945 $x2=0 $y2=0
318 GND:568 X2/NET4:71 3.86728e-06 // $x=29.07 $y=0.152 $x2=0 $y2=0
319 GND:1010 X2/NET4:71 4.34486e-06 // $x=28.185 $y=0.867 $x2=0 $y2=0
320 GND:58 X2/NET4:73 2.7864e-05 // $x=18.11 $y=0.945 $x2=0 $y2=0
321 GND:331 X2/NET4:73 3.80656e-07 // $x=18.365 $y=1.375 $x2=0 $y2=0
322 GND:58 X2/NET4:74 3.75449e-05 // $x=18.11 $y=0.945 $x2=0 $y2=0