*SPEF "2.0"
*DESIGN "SKY130_OSU_RING_OSCILLATOR_MPR2CT_8_B0R1"
*DATE "Fri Nov  3 09:48:37 2023"
*VENDOR "Mentor Graphics Corp."
*PROGRAM "Calibre xRC"
*VERSION "v2023.2_27.15"
*DESIGN_FLOW "extraction"
*DIVIDER /
*DELIMITER :
*BUS_DELIMITER []
*T_UNIT 1 NS
*C_UNIT 1 PF
*R_UNIT 1 OHM
*L_UNIT 1 HENRY



// CIRCUIT TEMPERATURE 30C
// NOMINAL TEMPERATURE 30C

*PORTS 
 X5_Y1 B
 X4_Y1 B
 X3_Y1 B
 X2_Y1 B
 X1_Y1 B
 VDD B
 START B
 S5 B
 S4 B
 S3 B
 S2 B
 S1 B
 GND B

*D_NET GND 0.0713124
*CONN
*P GND B 
*I x1/x11/MN13:g I 
*I x1/x11/MN15:g I 
*I x2/x11/MN13:g I 
*I x2/x11/MN15:g I 
*I x3/x11/MN13:g I 
*I x3/x11/MN15:g I 
*I x4/x11/MN13:g I 
*I x4/x11/MN15:g I 
*I x5/x11/MN13:g I 
*I x5/x11/MN15:g I 
*I x1/x11/MP13:g I 
*I x1/x11/MP15:g I 
*I x2/x11/MP13:g I 
*I x2/x11/MP15:g I 
*I x3/x11/MP13:g I 
*I x3/x11/MP15:g I 
*I x4/x11/MP13:g I 
*I x4/x11/MP15:g I 
*I x5/x11/MP13:g I 
*I x5/x11/MP15:g I 
*I x6/MN2:s B 
*I x1/x8/MN2:s B 
*I x1/x8/MN0:s B 
*I x1/x11/MN9:s B 
*I x1/x11/MN13:s B 
*I x1/x11/MN9\@2:s B 
*I x1/x11/MN7:s B 
*I x1/x11/MN8:s B 
*I x1/x11/MN1:s B 
*I x1/x11/MN15:s B 
*I x1/x11/MN0:s B 
*I x1/x11/MN6:s B 
*I x1/x11/MN17:s B 
*I x1/x11/MN2:d B 
*I x1/x11/MN4:s B 
*I x1/x11/MN11:s B 
*I x1/x11/MN5:s B 
*I x1/x3/MN2:s B 
*I x1/x2/MN2:s B 
*I x1/x4/MN0:s B 
*I x1/x6/MN0:s B 
*I x1/x5/MN0:s B 
*I x1/x7/MN0:s B 
*I x2/x8/MN2:s B 
*I x2/x8/MN0:s B 
*I x2/x11/MN9:s B 
*I x2/x11/MN13:s B 
*I x2/x11/MN9\@2:s B 
*I x2/x11/MN7:s B 
*I x2/x11/MN8:s B 
*I x2/x11/MN1:s B 
*I x2/x11/MN15:s B 
*I x2/x11/MN0:s B 
*I x2/x11/MN6:s B 
*I x2/x11/MN17:s B 
*I x2/x11/MN2:d B 
*I x2/x11/MN4:s B 
*I x2/x11/MN11:s B 
*I x2/x11/MN5:s B 
*I x2/x3/MN2:s B 
*I x2/x2/MN2:s B 
*I x2/x4/MN0:s B 
*I x2/x6/MN0:s B 
*I x2/x5/MN0:s B 
*I x2/x7/MN0:s B 
*I x3/x8/MN2:s B 
*I x3/x8/MN0:s B 
*I x3/x11/MN9:s B 
*I x3/x11/MN13:s B 
*I x3/x11/MN9\@2:s B 
*I x3/x11/MN7:s B 
*I x3/x11/MN8:s B 
*I x3/x11/MN1:s B 
*I x3/x11/MN15:s B 
*I x3/x11/MN0:s B 
*I x3/x11/MN6:s B 
*I x3/x11/MN17:s B 
*I x3/x11/MN2:d B 
*I x3/x11/MN4:s B 
*I x3/x11/MN11:s B 
*I x3/x11/MN5:s B 
*I x3/x3/MN2:s B 
*I x3/x2/MN2:s B 
*I x3/x4/MN0:s B 
*I x3/x6/MN0:s B 
*I x3/x5/MN0:s B 
*I x3/x7/MN0:s B 
*I x4/x8/MN2:s B 
*I x4/x8/MN0:s B 
*I x4/x11/MN9:s B 
*I x4/x11/MN13:s B 
*I x4/x11/MN9\@2:s B 
*I x4/x11/MN7:s B 
*I x4/x11/MN8:s B 
*I x4/x11/MN1:s B 
*I x4/x11/MN15:s B 
*I x4/x11/MN0:s B 
*I x4/x11/MN6:s B 
*I x4/x11/MN17:s B 
*I x4/x11/MN2:d B 
*I x4/x11/MN4:s B 
*I x4/x11/MN11:s B 
*I x4/x11/MN5:s B 
*I x4/x3/MN2:s B 
*I x4/x2/MN2:s B 
*I x4/x4/MN0:s B 
*I x4/x6/MN0:s B 
*I x4/x5/MN0:s B 
*I x4/x7/MN0:s B 
*I x5/x8/MN2:s B 
*I x5/x8/MN0:s B 
*I x5/x11/MN9:s B 
*I x5/x11/MN13:s B 
*I x5/x11/MN9\@2:s B 
*I x5/x11/MN7:s B 
*I x5/x11/MN8:s B 
*I x5/x11/MN1:s B 
*I x5/x11/MN15:s B 
*I x5/x11/MN0:s B 
*I x5/x11/MN6:s B 
*I x5/x11/MN17:s B 
*I x5/x11/MN2:d B 
*I x5/x11/MN4:s B 
*I x5/x11/MN11:s B 
*I x5/x11/MN5:s B 
*I x5/x3/MN2:s B 
*I x5/x2/MN2:s B 
*I x5/x4/MN0:s B 
*I x5/x6/MN0:s B 
*I x5/x5/MN0:s B 
*I x5/x7/MN0:s B 
*I x1/x8/MP1:s B 
*I x2/x8/MP1:s B 
*I x3/x8/MP1:s B 
*I x4/x8/MP1:s B 
*I x5/x8/MP1:s B 

*CAP
0 x1/x11/MN1:s X1/NET8:17 1.17652e-06 // $x=6.05 $y=1.945 $x2=6.34 $y2=3.29
1 GND:23 X1/NET8:23 6.61471e-05 // $x=9.54 $y=0.975 $x2=6.585 $y2=2.39
2 GND:265 X1/NET8:23 2.40357e-07 // $x=5.705 $y=5.96 $x2=6.585 $y2=2.39
3 GND:491 X1/NET8:23 2.46458e-06 // $x=10.81 $y=0.152 $x2=6.585 $y2=2.39
4 x1/x11/MN1:s X1/NET8:23 1.60748e-05 // $x=6.05 $y=1.945 $x2=6.585 $y2=2.39
5 x1/x11/MN6:s X1/NET8:25 6.18348e-07 // $x=7.43 $y=1.945 $x2=6.605 $y2=3.205
6 GND:23 X1/NET8:26 9.96303e-07 // $x=9.54 $y=0.975 $x2=6.595 $y2=2.605
7 GND:491 X1/NET8:26 1.25074e-06 // $x=10.81 $y=0.152 $x2=6.595 $y2=2.605
8 x1/x11/MN1:s X1/NET8:26 3.56926e-06 // $x=6.05 $y=1.945 $x2=6.595 $y2=2.605
9 x1/x11/MN0:s X1/NET8:26 3.16897e-06 // $x=6.88 $y=1.945 $x2=6.595 $y2=2.605
10 GND:23 x1/x11/MN1:d 5.57615e-06 // $x=9.54 $y=0.975 $x2=6.46 $y2=1.945
11 GND:491 x1/x11/MN1:d 3.5135e-05 // $x=10.81 $y=0.152 $x2=6.46 $y2=1.945
12 x1/x11/MN1:s x1/x11/MN1:d 4.89891e-05 // $x=6.05 $y=1.945 $x2=6.46 $y2=1.945
13 x1/x11/MN0:s x1/x11/MN1:d 4.8263e-05 // $x=6.88 $y=1.945 $x2=6.46 $y2=1.945
14 GND:24 X1/NET7:1 9.68878e-06 // $x=5.105 $y=0.975 $x2=0 $y2=0
15 GND:24 X1/NET7:2 3.59219e-06 // $x=5.105 $y=0.975 $x2=0 $y2=0
16 GND:23 X1/NET7:11 1.7508e-06 // $x=9.54 $y=0.975 $x2=0 $y2=0
17 x1/x11/MN1:s X1/NET7:11 2.10824e-06 // $x=6.05 $y=1.945 $x2=0 $y2=0
18 GND:23 X1/NET7:38 6.49768e-07 // $x=9.54 $y=0.975 $x2=0 $y2=0
19 GND:491 X1/NET7:38 4.7155e-07 // $x=10.81 $y=0.152 $x2=0 $y2=0
20 x1/x11/MN1:s X1/NET7:38 2.19147e-05 // $x=6.05 $y=1.945 $x2=0 $y2=0
21 x1/x11/MN9\@2:s X1/NET7:44 9.3746e-07 // $x=4.13 $y=1.945 $x2=0 $y2=0
22 x1/x11/MP15:g x1/x11/MP0:g 2.17433e-05 // $x=6.405 $y=5.165 $x2=0 $y2=0
23 GND:23 X1/NET7:47 6.20404e-06 // $x=9.54 $y=0.975 $x2=0 $y2=0
24 GND:491 X1/NET7:47 7.09103e-06 // $x=10.81 $y=0.152 $x2=0 $y2=0
25 x1/x11/MN1:s X1/NET7:47 1.57182e-05 // $x=6.05 $y=1.945 $x2=0 $y2=0
26 x1/x11/MN1:s X1/NET7:55 1.03408e-05 // $x=6.05 $y=1.945 $x2=0 $y2=0
27 GND:24 x1/x11/MN9:d 1.62615e-05 // $x=5.105 $y=0.975 $x2=0 $y2=0
28 GND:491 x1/x11/MN9:d 3.47047e-05 // $x=10.81 $y=0.152 $x2=0 $y2=0
29 x1/x11/MN9:s x1/x11/MN9:d 4.86931e-05 // $x=3.3 $y=1.945 $x2=0 $y2=0
30 x1/x11/MN9\@2:s x1/x11/MN9:d 4.88522e-05 // $x=4.13 $y=1.945 $x2=0 $y2=0
31 GND:24 X1/X11/N_3:3 1.05058e-05 // $x=5.105 $y=0.975 $x2=0 $y2=0
32 GND:24 X1/X11/N_3:6 1.58122e-05 // $x=5.105 $y=0.975 $x2=0 $y2=0
33 GND:491 X1/X11/N_3:6 3.9682e-07 // $x=10.81 $y=0.152 $x2=0 $y2=0
34 x1/x11/MN9\@2:s X1/X11/N_3:6 2.70586e-07 // $x=4.13 $y=1.945 $x2=0 $y2=0
35 x1/x11/MN7:s X1/X11/N_3:6 8.98385e-06 // $x=4.69 $y=1.945 $x2=0 $y2=0
36 GND:23 X1/X11/N_3:9 8.03347e-06 // $x=9.54 $y=0.975 $x2=0 $y2=0
37 x1/x11/MN8:s X1/X11/N_3:9 3.02248e-06 // $x=5.52 $y=1.945 $x2=0 $y2=0
38 GND:23 X1/X11/N_3:12 1.3001e-05 // $x=9.54 $y=0.975 $x2=6.175 $y2=3.375
39 x1/x11/MN0:s X1/X11/N_3:12 3.1598e-06 // $x=6.88 $y=1.945 $x2=6.175 $y2=3.375
40 GND:33 X1/X11/N_3:15 6.01623e-05 // $x=9.53 $y=7.895 $x2=0 $y2=0
41 GND:458 X1/X11/N_3:15 2.21619e-06 // $x=8.28 $y=7.972 $x2=0 $y2=0
42 x1/x11/MN17:s X1/X11/N_3:15 2.52905e-06 // $x=8.26 $y=6.265 $x2=0 $y2=0
43 GND:265 X1/X11/N_3:26 3.04463e-07 // $x=5.705 $y=5.96 $x2=6.595 $y2=2.605
44 GND:265 X1/X11/N_3:28 3.0384e-06 // $x=5.705 $y=5.96 $x2=0 $y2=0
45 GND:24 X1/X11/N_3:31 1.21522e-05 // $x=5.105 $y=0.975 $x2=0 $y2=0
46 x1/x11/MN7:s X1/X11/N_3:31 6.68452e-07 // $x=4.69 $y=1.945 $x2=0 $y2=0
47 GND:23 X1/X11/N_3:36 1.30997e-05 // $x=9.54 $y=0.975 $x2=0 $y2=0
48 x1/x11/MN0:s X1/X11/N_3:36 5.04756e-06 // $x=6.88 $y=1.945 $x2=0 $y2=0
49 GND:33 X1/X11/N_3:39 1.16344e-05 // $x=9.53 $y=7.895 $x2=0 $y2=0
50 GND:265 X1/X11/N_3:41 3.65119e-05 // $x=5.705 $y=5.96 $x2=0 $y2=0
51 GND:265 X1/X11/N_3:42 6.28161e-06 // $x=5.705 $y=5.96 $x2=0 $y2=0
52 GND:23 X1/X11/N_3:53 2.83009e-06 // $x=9.54 $y=0.975 $x2=0 $y2=0
53 GND:491 X1/X11/N_3:53 6.03412e-07 // $x=10.81 $y=0.152 $x2=0 $y2=0
54 x1/x11/MN8:s X1/X11/N_3:53 2.20015e-05 // $x=5.52 $y=1.945 $x2=0 $y2=0
55 GND:23 X1/X11/N_3:59 2.0959e-06 // $x=9.54 $y=0.975 $x2=0 $y2=0
56 GND:491 X1/X11/N_3:59 3.76607e-07 // $x=10.81 $y=0.152 $x2=0 $y2=0
57 x1/x11/MN0:s X1/X11/N_3:59 2.22849e-05 // $x=6.88 $y=1.945 $x2=0 $y2=0
58 GND:33 X1/X11/N_3:72 1.1966e-05 // $x=9.53 $y=7.895 $x2=0 $y2=0
59 GND:458 X1/X11/N_3:72 7.01257e-05 // $x=8.28 $y=7.972 $x2=0 $y2=0
60 x1/x11/MN15:s X1/X11/N_3:72 2.5083e-06 // $x=6.07 $y=6.265 $x2=0 $y2=0
61 x1/x11/MN17:s X1/X11/N_3:72 3.87386e-05 // $x=8.26 $y=6.265 $x2=0 $y2=0
62 GND:23 X1/X11/N_3:79 7.45647e-06 // $x=9.54 $y=0.975 $x2=0 $y2=0
63 GND:491 X1/X11/N_3:79 7.09103e-06 // $x=10.81 $y=0.152 $x2=0 $y2=0
64 x1/x11/MN8:s X1/X11/N_3:79 1.33952e-05 // $x=5.52 $y=1.945 $x2=0 $y2=0
65 GND:23 X1/X11/N_3:87 8.2773e-06 // $x=9.54 $y=0.975 $x2=0 $y2=0
66 GND:491 X1/X11/N_3:87 7.25569e-06 // $x=10.81 $y=0.152 $x2=0 $y2=0
67 x1/x11/MN0:s X1/X11/N_3:87 1.40685e-05 // $x=6.88 $y=1.945 $x2=0 $y2=0
68 x1/x11/MN6:s X1/X11/N_3:87 4.88396e-07 // $x=7.43 $y=1.945 $x2=0 $y2=0
69 GND:23 X1/X11/N_3:92 4.75259e-07 // $x=9.54 $y=0.975 $x2=0 $y2=0
70 x1/x11/MN8:s X1/X11/N_3:92 1.03408e-05 // $x=5.52 $y=1.945 $x2=0 $y2=0
71 GND:23 X1/X11/N_3:95 4.69931e-07 // $x=9.54 $y=0.975 $x2=0 $y2=0
72 x1/x11/MN0:s X1/X11/N_3:95 1.10932e-05 // $x=6.88 $y=1.945 $x2=0 $y2=0
73 GND:23 X1/NET1:6 7.21566e-06 // $x=9.54 $y=0.975 $x2=0 $y2=0
74 x1/x11/MN6:s X1/NET1:6 2.72429e-06 // $x=7.43 $y=1.945 $x2=0 $y2=0
75 GND:54 X1/NET1:18 9.03328e-05 // $x=10.81 $y=0.152 $x2=6.595 $y2=2.44
76 x1/x11/MN2:d X1/NET1:18 5.26778e-06 // $x=9.24 $y=1.945 $x2=6.595 $y2=2.44
77 x1/x11/MN5:s X1/NET1:18 5.14041e-06 // $x=10.08 $y=1.945 $x2=6.595 $y2=2.44
78 GND:23 X1/NET1:19 7.80341e-05 // $x=9.54 $y=0.975 $x2=6.595 $y2=2.1
79 x1/x11/MN6:s X1/NET1:19 4.22104e-06 // $x=7.43 $y=1.945 $x2=6.595 $y2=2.1
80 GND:54 X1/NET1:23 6.78968e-06 // $x=10.81 $y=0.152 $x2=6.585 $y2=2.39
81 x1/x11/MN5:s X1/NET1:23 4.47768e-06 // $x=10.08 $y=1.945 $x2=6.585 $y2=2.39
82 GND:53 X1/NET1:24 8.66415e-05 // $x=20.37 $y=0.152 $x2=6.605 $y2=2.605
83 GND:23 X1/NET1:33 2.37676e-06 // $x=9.54 $y=0.975 $x2=0 $y2=0
84 x1/x11/MN6:s X1/NET1:33 1.22111e-06 // $x=7.43 $y=1.945 $x2=0 $y2=0
85 GND:53 X1/NET1:38 1.52424e-06 // $x=20.37 $y=0.152 $x2=0 $y2=0
86 x1/x11/MN5:s X1/NET1:38 4.11771e-06 // $x=10.08 $y=1.945 $x2=0 $y2=0
87 GND:53 X1/NET1:39 8.27781e-06 // $x=20.37 $y=0.152 $x2=0 $y2=0
88 GND:53 X1/NET1:40 6.04215e-06 // $x=20.37 $y=0.152 $x2=0 $y2=0
89 GND:23 X1/NET1:61 2.99663e-05 // $x=9.54 $y=0.975 $x2=0 $y2=0
90 GND:491 X1/NET1:61 5.71678e-05 // $x=10.81 $y=0.152 $x2=0 $y2=0
91 x1/x11/MN6:s X1/NET1:61 4.36257e-05 // $x=7.43 $y=1.945 $x2=0 $y2=0
92 GND:47 X1/NET1:70 4.83331e-06 // $x=17.965 $y=8.727 $x2=0 $y2=0
93 GND:504 X1/NET1:70 1.23452e-05 // $x=14.63 $y=8.727 $x2=0 $y2=0
94 GND:518 X1/NET1:70 1.28014e-06 // $x=15.62 $y=8.727 $x2=0 $y2=0
95 x1/x2/MN2:s X1/NET1:70 1.65342e-06 // $x=11.845 $y=7.755 $x2=0 $y2=0
96 GND:23 X1/NET1:83 1.81368e-06 // $x=9.54 $y=0.975 $x2=0 $y2=0
97 GND:491 X1/NET1:83 5.76477e-07 // $x=10.81 $y=0.152 $x2=0 $y2=0
98 x1/x11/MN6:s X1/NET1:83 1.76438e-05 // $x=7.43 $y=1.945 $x2=0 $y2=0
99 GND:491 x1/x11/MN6:d 3.84111e-06 // $x=10.81 $y=0.152 $x2=0 $y2=0
100 x1/x11/MN2:d x1/x11/MN6:d 7.59026e-06 // $x=9.24 $y=1.945 $x2=0 $y2=0
101 GND:53 x1/x3/MN1:s 2.18283e-06 // $x=20.37 $y=0.152 $x2=0 $y2=0
102 GND:500 x1/x3/MN1:s 1.12678e-05 // $x=14.63 $y=0.152 $x2=0 $y2=0
103 GND:516 x1/x3/MN1:s 1.33082e-06 // $x=15.62 $y=0.152 $x2=0 $y2=0
104 x1/x4/MN0:s x1/x3/MN1:s 8.67204e-06 // $x=14.59 $y=0.575 $x2=0 $y2=0
105 x1/x11/MN8:s X1/NET9:22 1.61539e-06 // $x=5.52 $y=1.945 $x2=6.595 $y2=2.39
106 GND:24 x1/x11/MN7:d 9.19204e-06 // $x=5.105 $y=0.975 $x2=0 $y2=0
107 GND:491 x1/x11/MN7:d 3.21376e-05 // $x=10.81 $y=0.152 $x2=0 $y2=0
108 x1/x11/MN7:s x1/x11/MN7:d 4.89468e-05 // $x=4.69 $y=1.945 $x2=0 $y2=0
109 x1/x11/MN8:s x1/x11/MN7:d 4.87586e-05 // $x=5.52 $y=1.945 $x2=0 $y2=0
110 GND:23 x1/x11/MP7:s 3.16817e-06 // $x=9.54 $y=0.975 $x2=0 $y2=0
111 GND:14 X1/NET4:2 1.32492e-05 // $x=0.83 $y=8.575 $x2=0 $y2=0
112 GND:34 X1/NET4:2 3.73026e-06 // $x=5.395 $y=7.895 $x2=0 $y2=0
113 GND:421 X1/NET4:2 7.29338e-06 // $x=1.29 $y=6.4 $x2=0 $y2=0
114 GND:21 X1/NET4:3 1.53894e-06 // $x=5.545 $y=5.96 $x2=0 $y2=0
115 GND:33 X1/NET4:3 6.30038e-05 // $x=9.53 $y=7.895 $x2=0 $y2=0
116 GND:265 X1/NET4:3 2.26015e-05 // $x=5.705 $y=5.96 $x2=0 $y2=0
117 GND:446 X1/NET4:3 5.3683e-07 // $x=5.715 $y=6.045 $x2=0 $y2=0
118 GND:447 X1/NET4:3 1.25474e-05 // $x=5.715 $y=7.065 $x2=0 $y2=0
119 GND:448 X1/NET4:3 3.26372e-06 // $x=6.01 $y=5.96 $x2=0 $y2=0
120 GND:459 X1/NET4:3 2.62744e-06 // $x=6.31 $y=7.972 $x2=0 $y2=0
121 x1/x11/MN15:s X1/NET4:3 1.36476e-05 // $x=6.07 $y=6.265 $x2=0 $y2=0
122 GND:21 X1/NET4:4 1.43218e-05 // $x=5.545 $y=5.96 $x2=0 $y2=0
123 GND:34 X1/NET4:4 3.52046e-05 // $x=5.395 $y=7.895 $x2=0 $y2=0
124 GND:265 X1/NET4:4 3.86169e-06 // $x=5.705 $y=5.96 $x2=0 $y2=0
125 GND:447 X1/NET4:4 1.56319e-06 // $x=5.715 $y=7.065 $x2=0 $y2=0
126 GND:459 X1/NET4:4 1.16991e-06 // $x=6.31 $y=7.972 $x2=0 $y2=0
127 GND:33 X1/NET4:5 5.21609e-05 // $x=9.53 $y=7.895 $x2=0 $y2=0
128 GND:458 X1/NET4:5 1.9405e-06 // $x=8.28 $y=7.972 $x2=0 $y2=0
129 GND:33 X1/NET4:6 4.06554e-05 // $x=9.53 $y=7.895 $x2=0 $y2=0
130 GND:458 X1/NET4:6 2.55478e-06 // $x=8.28 $y=7.972 $x2=0 $y2=0
131 GND:459 X1/NET4:6 1.2538e-06 // $x=6.31 $y=7.972 $x2=0 $y2=0
132 GND:1087 X1/NET4:6 2.03124e-06 // $x=6.18 $y=5.99 $x2=0 $y2=0
133 GND:1373 X1/NET4:6 8.45114e-06 // $x=6.405 $y=6.155 $x2=0 $y2=0
134 GND:1423 X1/NET4:6 3.84667e-07 // $x=6.405 $y=5.99 $x2=0 $y2=0
135 x1/x11/MN15:s X1/NET4:6 1.0591e-05 // $x=6.07 $y=6.265 $x2=0 $y2=0
136 GND:265 X1/NET4:11 8.12865e-06 // $x=5.705 $y=5.96 $x2=0 $y2=0
137 GND:33 X1/NET4:15 5.35544e-05 // $x=9.53 $y=7.895 $x2=0 $y2=0
138 GND:458 X1/NET4:15 3.37137e-07 // $x=8.28 $y=7.972 $x2=0 $y2=0
139 GND:489 X1/NET4:15 6.80184e-07 // $x=10.625 $y=8.727 $x2=0 $y2=0
140 x1/x11/MN17:s X1/NET4:15 1.52221e-05 // $x=8.26 $y=6.265 $x2=0 $y2=0
141 x1/x11/MN11:s X1/NET4:15 1.0732e-06 // $x=9.64 $y=6.265 $x2=0 $y2=0
142 GND:33 X1/NET4:19 3.98902e-06 // $x=9.53 $y=7.895 $x2=6.595 $y2=2.1
143 GND:14 X1/NET4:26 1.48267e-05 // $x=0.83 $y=8.575 $x2=6.595 $y2=2.605
144 GND:17 X1/NET4:26 5.7625e-07 // $x=3.425 $y=8.727 $x2=6.595 $y2=2.605
145 GND:34 X1/NET4:26 4.11557e-06 // $x=5.395 $y=7.895 $x2=6.595 $y2=2.605
146 GND:410 X1/NET4:26 5.61707e-07 // $x=3.425 $y=8.727 $x2=6.595 $y2=2.605
147 GND:421 X1/NET4:26 5.26895e-06 // $x=1.29 $y=6.4 $x2=6.595 $y2=2.605
148 GND:14 X1/NET4:32 1.26924e-05 // $x=0.83 $y=8.575 $x2=0 $y2=0
149 GND:17 X1/NET4:32 1.19432e-05 // $x=3.425 $y=8.727 $x2=0 $y2=0
150 GND:34 X1/NET4:32 8.52963e-07 // $x=5.395 $y=7.895 $x2=0 $y2=0
151 GND:410 X1/NET4:32 3.26999e-06 // $x=3.425 $y=8.727 $x2=0 $y2=0
152 GND:421 X1/NET4:32 3.57096e-06 // $x=1.29 $y=6.4 $x2=0 $y2=0
153 GND:48 X1/NET4:47 7.65728e-06 // $x=10.625 $y=8.727 $x2=0 $y2=0
154 x1/x11/MN11:s X1/NET4:47 3.22459e-06 // $x=9.64 $y=6.265 $x2=0 $y2=0
155 GND:14 X1/NET4:50 7.15259e-06 // $x=0.83 $y=8.575 $x2=0 $y2=0
156 GND:17 X1/NET4:50 3.58507e-06 // $x=3.425 $y=8.727 $x2=0 $y2=0
157 GND:33 X1/NET4:55 4.81245e-06 // $x=9.53 $y=7.895 $x2=0 $y2=0
158 GND:1087 X1/NET4:55 9.02045e-07 // $x=6.18 $y=5.99 $x2=0 $y2=0
159 GND:1373 X1/NET4:55 3.41362e-06 // $x=6.405 $y=6.155 $x2=0 $y2=0
160 GND:1423 X1/NET4:55 3.32672e-07 // $x=6.405 $y=5.99 $x2=0 $y2=0
161 x1/x11/MN15:s X1/NET4:55 3.3236e-06 // $x=6.07 $y=6.265 $x2=0 $y2=0
162 GND:265 X1/NET4:61 8.01586e-06 // $x=5.705 $y=5.96 $x2=0 $y2=0
163 GND:17 X1/NET4:72 5.55689e-06 // $x=3.425 $y=8.727 $x2=0 $y2=0
164 GND:33 X1/NET4:74 2.19354e-05 // $x=9.53 $y=7.895 $x2=0 $y2=0
165 GND:34 X1/NET4:74 7.82858e-05 // $x=5.395 $y=7.895 $x2=0 $y2=0
166 GND:265 X1/NET4:74 3.1315e-05 // $x=5.705 $y=5.96 $x2=0 $y2=0
167 GND:33 X1/NET4:76 5.10362e-06 // $x=9.53 $y=7.895 $x2=0 $y2=0
168 GND:265 X1/NET4:76 1.85987e-05 // $x=5.705 $y=5.96 $x2=0 $y2=0
169 GND:33 X1/NET4:77 2.80359e-05 // $x=9.53 $y=7.895 $x2=0 $y2=0
170 GND:33 X1/NET4:78 1.16833e-05 // $x=9.53 $y=7.895 $x2=0 $y2=0
171 GND:265 X1/NET4:80 2.96145e-05 // $x=5.705 $y=5.96 $x2=0 $y2=0
172 GND:33 X1/NET4:81 2.25992e-05 // $x=9.53 $y=7.895 $x2=0 $y2=0
173 GND:33 X1/NET4:82 2.33638e-05 // $x=9.53 $y=7.895 $x2=0 $y2=0
174 GND:33 X1/NET4:85 3.59708e-05 // $x=9.53 $y=7.895 $x2=0 $y2=0
175 GND:34 X1/NET4:89 1.39078e-05 // $x=5.395 $y=7.895 $x2=0 $y2=0
176 GND:33 X1/NET4:93 4.66387e-06 // $x=9.53 $y=7.895 $x2=0 $y2=0
177 GND:33 X1/NET4:96 4.76001e-06 // $x=9.53 $y=7.895 $x2=0 $y2=0
178 GND:14 X1/NET4:108 3.64811e-07 // $x=0.83 $y=8.575 $x2=0 $y2=0
179 GND:17 X1/NET4:108 2.15467e-06 // $x=3.425 $y=8.727 $x2=0 $y2=0
180 GND:410 X1/NET4:108 1.37276e-05 // $x=3.425 $y=8.727 $x2=0 $y2=0
181 GND:419 X1/NET4:108 1.49017e-05 // $x=1.29 $y=7.855 $x2=0 $y2=0
182 GND:421 X1/NET4:108 1.74706e-05 // $x=1.29 $y=6.4 $x2=0 $y2=0
183 GND:21 X1/NET4:113 2.9123e-05 // $x=5.545 $y=5.96 $x2=0 $y2=0
184 GND:34 X1/NET4:113 2.84779e-06 // $x=5.395 $y=7.895 $x2=0 $y2=0
185 GND:265 X1/NET4:113 2.30747e-06 // $x=5.705 $y=5.96 $x2=0 $y2=0
186 GND:446 X1/NET4:113 2.10422e-05 // $x=5.715 $y=6.045 $x2=0 $y2=0
187 GND:459 X1/NET4:113 5.63452e-06 // $x=6.31 $y=7.972 $x2=0 $y2=0
188 GND:1087 X1/NET4:113 5.50404e-07 // $x=6.18 $y=5.99 $x2=0 $y2=0
189 GND:21 X1/NET4:117 5.3683e-07 // $x=5.545 $y=5.96 $x2=0 $y2=0
190 GND:33 X1/NET4:117 2.36066e-06 // $x=9.53 $y=7.895 $x2=0 $y2=0
191 GND:34 X1/NET4:117 4.09328e-06 // $x=5.395 $y=7.895 $x2=0 $y2=0
192 GND:265 X1/NET4:117 6.83827e-07 // $x=5.705 $y=5.96 $x2=0 $y2=0
193 GND:447 X1/NET4:117 4.82947e-05 // $x=5.715 $y=7.065 $x2=0 $y2=0
194 GND:459 X1/NET4:117 9.94423e-06 // $x=6.31 $y=7.972 $x2=0 $y2=0
195 x1/x11/MN13:s X1/NET4:117 2.06804e-06 // $x=3.77 $y=6.265 $x2=0 $y2=0
196 x1/x11/MN15:s X1/NET4:117 1.6195e-06 // $x=6.07 $y=6.265 $x2=0 $y2=0
197 x1/x11/MN17:s X1/NET4:122 2.82849e-05 // $x=8.26 $y=6.265 $x2=0 $y2=0
198 GND:33 X1/NET4:128 2.3418e-07 // $x=9.53 $y=7.895 $x2=0 $y2=0
199 GND:48 X1/NET4:134 2.3117e-06 // $x=10.625 $y=8.727 $x2=0 $y2=0
200 x1/x11/MN11:s X1/NET4:134 2.73609e-05 // $x=9.64 $y=6.265 $x2=0 $y2=0
201 GND:21 X1/NET4:142 1.65685e-05 // $x=5.545 $y=5.96 $x2=0 $y2=0
202 GND:265 X1/NET4:142 1.15351e-06 // $x=5.705 $y=5.96 $x2=0 $y2=0
203 GND:1087 X1/NET4:142 2.26924e-07 // $x=6.18 $y=5.99 $x2=0 $y2=0
204 GND:1423 X1/NET4:142 2.26585e-07 // $x=6.405 $y=5.99 $x2=0 $y2=0
205 GND:458 X1/NET4:151 1.61684e-06 // $x=8.28 $y=7.972 $x2=0 $y2=0
206 GND:265 x1/x11/MP12:g 4.03607e-07 // $x=5.705 $y=5.96 $x2=0 $y2=0
207 x1/x11/MP13:g x1/x11/MP12:g 4.95811e-05 // $x=4.105 $y=5.165 $x2=0 $y2=0
208 x1/x11/MP15:g x1/x11/MP14:g 4.9403e-05 // $x=6.405 $y=5.165 $x2=0 $y2=0
209 GND:34 X1/NET4:168 5.04231e-06 // $x=5.395 $y=7.895 $x2=0 $y2=0
210 GND:447 X1/NET4:168 1.20089e-06 // $x=5.715 $y=7.065 $x2=0 $y2=0
211 GND:459 X1/NET4:168 4.84368e-06 // $x=6.31 $y=7.972 $x2=0 $y2=0
212 GND:1368 X1/NET4:168 4.95811e-05 // $x=4.105 $y=6.155 $x2=0 $y2=0
213 GND:33 X1/NET4:173 3.89132e-06 // $x=9.53 $y=7.895 $x2=0 $y2=0
214 GND:458 X1/NET4:173 4.84368e-06 // $x=8.28 $y=7.972 $x2=0 $y2=0
215 GND:1373 X1/NET4:173 4.9403e-05 // $x=6.405 $y=6.155 $x2=0 $y2=0
216 GND:33 X1/NET4:178 3.78232e-06 // $x=9.53 $y=7.895 $x2=0 $y2=0
217 GND:458 X1/NET4:178 4.84368e-06 // $x=8.28 $y=7.972 $x2=0 $y2=0
218 GND:33 X1/NET4:183 7.84769e-06 // $x=9.53 $y=7.895 $x2=0 $y2=0
219 GND:458 X1/NET4:183 6.45201e-06 // $x=8.28 $y=7.972 $x2=0 $y2=0
220 x1/x11/MN17:s X1/NET4:183 1.57508e-05 // $x=8.26 $y=6.265 $x2=0 $y2=0
221 GND:33 X1/NET4:188 3.80498e-06 // $x=9.53 $y=7.895 $x2=0 $y2=0
222 GND:489 X1/NET4:188 4.84368e-06 // $x=10.625 $y=8.727 $x2=0 $y2=0
223 x1/x11/MN17:s X1/NET4:188 1.65495e-06 // $x=8.26 $y=6.265 $x2=0 $y2=0
224 GND:33 X1/NET4:193 2.10578e-06 // $x=9.53 $y=7.895 $x2=0 $y2=0
225 GND:48 X1/NET4:193 5.94427e-06 // $x=10.625 $y=8.727 $x2=0 $y2=0
226 GND:489 X1/NET4:193 6.39824e-06 // $x=10.625 $y=8.727 $x2=0 $y2=0
227 x1/x11/MN11:s X1/NET4:193 2.14446e-05 // $x=9.64 $y=6.265 $x2=0 $y2=0
228 GND:21 X1/NET4:198 4.17544e-06 // $x=5.545 $y=5.96 $x2=0 $y2=0
229 GND:446 X1/NET4:198 4.81106e-07 // $x=5.715 $y=6.045 $x2=0 $y2=0
230 GND:1087 X1/NET4:198 2.26675e-07 // $x=6.18 $y=5.99 $x2=0 $y2=0
231 GND:1418 X1/NET4:198 5.22188e-05 // $x=4.105 $y=5.99 $x2=0 $y2=0
232 GND:1423 X1/NET4:198 3.076e-06 // $x=6.405 $y=5.99 $x2=0 $y2=0
233 GND:1423 X1/NET4:203 5.20406e-05 // $x=6.405 $y=5.99 $x2=0 $y2=0
234 GND:1423 X1/NET4:208 1.07808e-06 // $x=6.405 $y=5.99 $x2=0 $y2=0
235 x1/x11/MN17:s X1/NET4:213 1.15373e-05 // $x=8.26 $y=6.265 $x2=0 $y2=0
236 x1/x11/MN11:s X1/NET4:223 1.18865e-05 // $x=9.64 $y=6.265 $x2=0 $y2=0
237 GND:14 x1/x8/MP1:d 3.64811e-07 // $x=0.83 $y=8.575 $x2=0 $y2=0
238 GND:253 x1/x8/MP1:d 7.30771e-06 // $x=1.29 $y=6.4 $x2=0 $y2=0
239 GND:421 x1/x8/MP1:d 4.47144e-06 // $x=1.29 $y=6.4 $x2=0 $y2=0
240 GND:1047 x1/x8/MP1:d 6.52599e-05 // $x=1.262 $y=6.245 $x2=0 $y2=0
241 x1/x8/MP1:s x1/x8/MP1:d 5.01459e-05 // $x=1.11 $y=5.015 $x2=0 $y2=0
242 x2/x11/MN1:s X2/NET8:17 1.17652e-06 // $x=23.27 $y=1.945 $x2=6.34 $y2=3.29
243 GND:71 X2/NET8:23 6.61471e-05 // $x=26.76 $y=0.975 $x2=6.585 $y2=2.39
244 GND:286 X2/NET8:23 2.40357e-07 // $x=22.925 $y=5.96 $x2=6.585 $y2=2.39
245 GND:619 X2/NET8:23 2.46458e-06 // $x=28.03 $y=0.152 $x2=6.585 $y2=2.39
246 x2/x11/MN1:s X2/NET8:23 1.60748e-05 // $x=23.27 $y=1.945 $x2=6.585 $y2=2.39
247 x2/x11/MN6:s X2/NET8:25 6.18348e-07 // $x=24.65 $y=1.945 $x2=6.605 $y2=3.205
248 GND:71 X2/NET8:26 9.96303e-07 // $x=26.76 $y=0.975 $x2=6.595 $y2=2.605
249 GND:619 X2/NET8:26 1.25074e-06 // $x=28.03 $y=0.152 $x2=6.595 $y2=2.605
250 x2/x11/MN1:s X2/NET8:26 3.56926e-06 // $x=23.27 $y=1.945 $x2=6.595 $y2=2.605
251 x2/x11/MN0:s X2/NET8:26 3.16897e-06 // $x=24.1 $y=1.945 $x2=6.595 $y2=2.605
252 GND:71 x2/x11/MN1:d 5.57615e-06 // $x=26.76 $y=0.975 $x2=6.46 $y2=1.945
253 GND:619 x2/x11/MN1:d 3.5135e-05 // $x=28.03 $y=0.152 $x2=6.46 $y2=1.945
254 x2/x11/MN1:s x2/x11/MN1:d 4.89891e-05 // $x=23.27 $y=1.945 $x2=6.46 $y2=1.945
255 x2/x11/MN0:s x2/x11/MN1:d 4.8263e-05 // $x=24.1 $y=1.945 $x2=6.46 $y2=1.945
256 GND:72 X2/NET7:1 9.68878e-06 // $x=22.325 $y=0.975 $x2=0 $y2=0
257 GND:72 X2/NET7:2 3.59219e-06 // $x=22.325 $y=0.975 $x2=0 $y2=0
258 GND:71 X2/NET7:11 1.7508e-06 // $x=26.76 $y=0.975 $x2=0 $y2=0
259 x2/x11/MN1:s X2/NET7:11 2.10824e-06 // $x=23.27 $y=1.945 $x2=0 $y2=0
260 GND:71 X2/NET7:38 6.49768e-07 // $x=26.76 $y=0.975 $x2=0 $y2=0
261 GND:619 X2/NET7:38 4.7155e-07 // $x=28.03 $y=0.152 $x2=0 $y2=0
262 x2/x11/MN1:s X2/NET7:38 2.19147e-05 // $x=23.27 $y=1.945 $x2=0 $y2=0
263 x2/x11/MN9\@2:s X2/NET7:44 9.3746e-07 // $x=21.35 $y=1.945 $x2=0 $y2=0
264 x2/x11/MP15:g x2/x11/MP0:g 2.17433e-05 // $x=23.625 $y=5.165 $x2=0 $y2=0
265 GND:71 X2/NET7:47 6.20404e-06 // $x=26.76 $y=0.975 $x2=0 $y2=0
266 GND:619 X2/NET7:47 7.09103e-06 // $x=28.03 $y=0.152 $x2=0 $y2=0
267 x2/x11/MN1:s X2/NET7:47 1.57182e-05 // $x=23.27 $y=1.945 $x2=0 $y2=0
268 x2/x11/MN1:s X2/NET7:55 1.03408e-05 // $x=23.27 $y=1.945 $x2=0 $y2=0
269 GND:72 x2/x11/MN9:d 1.62615e-05 // $x=22.325 $y=0.975 $x2=0 $y2=0
270 GND:619 x2/x11/MN9:d 3.47047e-05 // $x=28.03 $y=0.152 $x2=0 $y2=0
271 x2/x11/MN9:s x2/x11/MN9:d 4.86931e-05 // $x=20.52 $y=1.945 $x2=0 $y2=0
272 x2/x11/MN9\@2:s x2/x11/MN9:d 4.88522e-05 // $x=21.35 $y=1.945 $x2=0 $y2=0
273 GND:72 X2/X11/N_3:3 1.05058e-05 // $x=22.325 $y=0.975 $x2=0 $y2=0
274 GND:72 X2/X11/N_3:6 1.58122e-05 // $x=22.325 $y=0.975 $x2=0 $y2=0
275 GND:619 X2/X11/N_3:6 3.9682e-07 // $x=28.03 $y=0.152 $x2=0 $y2=0
276 x2/x11/MN9\@2:s X2/X11/N_3:6 2.70586e-07 // $x=21.35 $y=1.945 $x2=0 $y2=0
277 x2/x11/MN7:s X2/X11/N_3:6 8.98385e-06 // $x=21.91 $y=1.945 $x2=0 $y2=0
278 GND:71 X2/X11/N_3:9 8.03347e-06 // $x=26.76 $y=0.975 $x2=0 $y2=0
279 x2/x11/MN8:s X2/X11/N_3:9 3.02248e-06 // $x=22.74 $y=1.945 $x2=0 $y2=0
280 GND:71 X2/X11/N_3:12 1.3001e-05 // $x=26.76 $y=0.975 $x2=6.175 $y2=3.375
281 x2/x11/MN0:s X2/X11/N_3:12 3.1598e-06 // $x=24.1 $y=1.945 $x2=6.175 $y2=3.375
282 GND:81 X2/X11/N_3:15 6.01623e-05 // $x=26.75 $y=7.895 $x2=0 $y2=0
283 GND:586 X2/X11/N_3:15 2.21619e-06 // $x=25.5 $y=7.972 $x2=0 $y2=0
284 x2/x11/MN17:s X2/X11/N_3:15 2.52905e-06 // $x=25.48 $y=6.265 $x2=0 $y2=0
285 GND:286 X2/X11/N_3:26 3.04463e-07 // $x=22.925 $y=5.96 $x2=6.595 $y2=2.605
286 GND:286 X2/X11/N_3:28 3.0384e-06 // $x=22.925 $y=5.96 $x2=0 $y2=0
287 GND:72 X2/X11/N_3:31 1.21522e-05 // $x=22.325 $y=0.975 $x2=0 $y2=0
288 x2/x11/MN7:s X2/X11/N_3:31 6.68452e-07 // $x=21.91 $y=1.945 $x2=0 $y2=0
289 GND:71 X2/X11/N_3:36 1.30997e-05 // $x=26.76 $y=0.975 $x2=0 $y2=0
290 x2/x11/MN0:s X2/X11/N_3:36 5.04756e-06 // $x=24.1 $y=1.945 $x2=0 $y2=0
291 GND:81 X2/X11/N_3:39 1.16344e-05 // $x=26.75 $y=7.895 $x2=0 $y2=0
292 GND:286 X2/X11/N_3:41 3.65119e-05 // $x=22.925 $y=5.96 $x2=0 $y2=0
293 GND:286 X2/X11/N_3:42 6.28161e-06 // $x=22.925 $y=5.96 $x2=0 $y2=0
294 GND:71 X2/X11/N_3:53 2.83009e-06 // $x=26.76 $y=0.975 $x2=0 $y2=0
295 GND:619 X2/X11/N_3:53 6.03412e-07 // $x=28.03 $y=0.152 $x2=0 $y2=0
296 x2/x11/MN8:s X2/X11/N_3:53 2.20015e-05 // $x=22.74 $y=1.945 $x2=0 $y2=0
297 GND:71 X2/X11/N_3:59 2.0959e-06 // $x=26.76 $y=0.975 $x2=0 $y2=0
298 GND:619 X2/X11/N_3:59 3.76607e-07 // $x=28.03 $y=0.152 $x2=0 $y2=0
299 x2/x11/MN0:s X2/X11/N_3:59 2.22849e-05 // $x=24.1 $y=1.945 $x2=0 $y2=0
300 GND:81 X2/X11/N_3:72 1.1966e-05 // $x=26.75 $y=7.895 $x2=0 $y2=0
301 GND:586 X2/X11/N_3:72 7.01257e-05 // $x=25.5 $y=7.972 $x2=0 $y2=0
302 x2/x11/MN15:s X2/X11/N_3:72 2.5083e-06 // $x=23.29 $y=6.265 $x2=0 $y2=0
303 x2/x11/MN17:s X2/X11/N_3:72 3.87386e-05 // $x=25.48 $y=6.265 $x2=0 $y2=0
304 GND:71 X2/X11/N_3:79 7.45647e-06 // $x=26.76 $y=0.975 $x2=0 $y2=0
305 GND:619 X2/X11/N_3:79 7.09103e-06 // $x=28.03 $y=0.152 $x2=0 $y2=0
306 x2/x11/MN8:s X2/X11/N_3:79 1.33952e-05 // $x=22.74 $y=1.945 $x2=0 $y2=0
307 GND:71 X2/X11/N_3:87 8.2773e-06 // $x=26.76 $y=0.975 $x2=0 $y2=0
308 GND:619 X2/X11/N_3:87 7.25569e-06 // $x=28.03 $y=0.152 $x2=0 $y2=0
309 x2/x11/MN0:s X2/X11/N_3:87 1.40685e-05 // $x=24.1 $y=1.945 $x2=0 $y2=0
310 x2/x11/MN6:s X2/X11/N_3:87 4.88396e-07 // $x=24.65 $y=1.945 $x2=0 $y2=0
311 GND:71 X2/X11/N_3:92 4.75259e-07 // $x=26.76 $y=0.975 $x2=0 $y2=0
312 x2/x11/MN8:s X2/X11/N_3:92 1.03408e-05 // $x=22.74 $y=1.945 $x2=0 $y2=0
313 GND:71 X2/X11/N_3:95 4.69931e-07 // $x=26.76 $y=0.975 $x2=0 $y2=0
314 x2/x11/MN0:s X2/X11/N_3:95 1.10932e-05 // $x=24.1 $y=1.945 $x2=0 $y2=0
315 GND:71 X2/NET1:6 7.21566e-06 // $x=26.76 $y=0.975 $x2=0 $y2=0
316 x2/x11/MN6:s X2/NET1:6 2.72429e-06 // $x=24.65 $y=1.945 $x2=0 $y2=0
317 GND:102 X2/NET1:18 9.03328e-05 // $x=28.03 $y=0.152 $x2=6.595 $y2=2.44
318 x2/x11/MN2:d X2/NET1:18 5.26778e-06 // $x=26.46 $y=1.945 $x2=6.595 $y2=2.44
319 x2/x11/MN5:s X2/NET1:18 5.14041e-06 // $x=27.3 $y=1.945 $x2=6.595 $y2=2.44
320 GND:71 X2/NET1:19 7.80341e-05 // $x=26.76 $y=0.975 $x2=6.595 $y2=2.1
321 x2/x11/MN6:s X2/NET1:19 4.22104e-06 // $x=24.65 $y=1.945 $x2=6.595 $y2=2.1
322 GND:102 X2/NET1:23 6.78968e-06 // $x=28.03 $y=0.152 $x2=6.585 $y2=2.39
323 x2/x11/MN5:s X2/NET1:23 4.47768e-06 // $x=27.3 $y=1.945 $x2=6.585 $y2=2.39
324 GND:101 X2/NET1:24 8.66415e-05 // $x=37.59 $y=0.152 $x2=6.605 $y2=2.605
325 GND:71 X2/NET1:33 2.37676e-06 // $x=26.76 $y=0.975 $x2=0 $y2=0
326 x2/x11/MN6:s X2/NET1:33 1.22111e-06 // $x=24.65 $y=1.945 $x2=0 $y2=0
327 GND:101 X2/NET1:38 1.52424e-06 // $x=37.59 $y=0.152 $x2=0 $y2=0
328 x2/x11/MN5:s X2/NET1:38 4.11771e-06 // $x=27.3 $y=1.945 $x2=0 $y2=0
329 GND:101 X2/NET1:39 8.27781e-06 // $x=37.59 $y=0.152 $x2=0 $y2=0
330 GND:101 X2/NET1:40 6.04215e-06 // $x=37.59 $y=0.152 $x2=0 $y2=0
331 GND:71 X2/NET1:61 2.99663e-05 // $x=26.76 $y=0.975 $x2=0 $y2=0
332 GND:619 X2/NET1:61 5.71678e-05 // $x=28.03 $y=0.152 $x2=0 $y2=0
333 x2/x11/MN6:s X2/NET1:61 4.36257e-05 // $x=24.65 $y=1.945 $x2=0 $y2=0
334 GND:95 X2/NET1:70 4.83331e-06 // $x=35.185 $y=8.727 $x2=0 $y2=0
335 GND:632 X2/NET1:70 1.23452e-05 // $x=31.85 $y=8.727 $x2=0 $y2=0
336 GND:646 X2/NET1:70 1.28014e-06 // $x=32.84 $y=8.727 $x2=0 $y2=0
337 x2/x2/MN2:s X2/NET1:70 1.65342e-06 // $x=29.065 $y=7.755 $x2=0 $y2=0
338 GND:71 X2/NET1:83 1.81368e-06 // $x=26.76 $y=0.975 $x2=0 $y2=0
339 GND:619 X2/NET1:83 5.76477e-07 // $x=28.03 $y=0.152 $x2=0 $y2=0
340 x2/x11/MN6:s X2/NET1:83 1.76438e-05 // $x=24.65 $y=1.945 $x2=0 $y2=0
341 GND:619 x2/x11/MN6:d 3.84111e-06 // $x=28.03 $y=0.152 $x2=0 $y2=0
342 x2/x11/MN2:d x2/x11/MN6:d 7.59026e-06 // $x=26.46 $y=1.945 $x2=0 $y2=0
343 GND:101 x2/x3/MN1:s 2.18283e-06 // $x=37.59 $y=0.152 $x2=0 $y2=0
344 GND:628 x2/x3/MN1:s 1.12678e-05 // $x=31.85 $y=0.152 $x2=0 $y2=0
345 GND:644 x2/x3/MN1:s 1.33082e-06 // $x=32.84 $y=0.152 $x2=0 $y2=0
346 x2/x4/MN0:s x2/x3/MN1:s 8.67204e-06 // $x=31.81 $y=0.575 $x2=0 $y2=0
347 x2/x11/MN8:s X2/NET9:22 1.61539e-06 // $x=22.74 $y=1.945 $x2=6.595 $y2=2.39
348 GND:72 x2/x11/MN7:d 9.19204e-06 // $x=22.325 $y=0.975 $x2=0 $y2=0
349 GND:619 x2/x11/MN7:d 3.21376e-05 // $x=28.03 $y=0.152 $x2=0 $y2=0
350 x2/x11/MN7:s x2/x11/MN7:d 4.89468e-05 // $x=21.91 $y=1.945 $x2=0 $y2=0
351 x2/x11/MN8:s x2/x11/MN7:d 4.87586e-05 // $x=22.74 $y=1.945 $x2=0 $y2=0
352 GND:71 x2/x11/MP7:s 3.16817e-06 // $x=26.76 $y=0.975 $x2=0 $y2=0
353 GND:60 X2/NET4:2 1.32492e-05 // $x=18.05 $y=8.575 $x2=0 $y2=0
354 GND:82 X2/NET4:2 3.73026e-06 // $x=22.615 $y=7.895 $x2=0 $y2=0
355 GND:549 X2/NET4:2 7.29338e-06 // $x=18.51 $y=6.4 $x2=0 $y2=0
356 GND:69 X2/NET4:3 1.53894e-06 // $x=22.765 $y=5.96 $x2=0 $y2=0
357 GND:81 X2/NET4:3 6.30038e-05 // $x=26.75 $y=7.895 $x2=0 $y2=0
358 GND:286 X2/NET4:3 2.26015e-05 // $x=22.925 $y=5.96 $x2=0 $y2=0
359 GND:574 X2/NET4:3 5.3683e-07 // $x=22.935 $y=6.045 $x2=0 $y2=0
360 GND:575 X2/NET4:3 1.25474e-05 // $x=22.935 $y=7.065 $x2=0 $y2=0
361 GND:576 X2/NET4:3 3.26372e-06 // $x=23.23 $y=5.96 $x2=0 $y2=0
362 GND:587 X2/NET4:3 2.62744e-06 // $x=23.53 $y=7.972 $x2=0 $y2=0
363 x2/x11/MN15:s X2/NET4:3 1.36476e-05 // $x=23.29 $y=6.265 $x2=0 $y2=0
364 GND:69 X2/NET4:4 1.43218e-05 // $x=22.765 $y=5.96 $x2=0 $y2=0
365 GND:82 X2/NET4:4 3.52046e-05 // $x=22.615 $y=7.895 $x2=0 $y2=0
366 GND:286 X2/NET4:4 3.86169e-06 // $x=22.925 $y=5.96 $x2=0 $y2=0
367 GND:575 X2/NET4:4 1.56319e-06 // $x=22.935 $y=7.065 $x2=0 $y2=0
368 GND:587 X2/NET4:4 1.16991e-06 // $x=23.53 $y=7.972 $x2=0 $y2=0
369 GND:81 X2/NET4:5 5.21609e-05 // $x=26.75 $y=7.895 $x2=0 $y2=0
370 GND:586 X2/NET4:5 1.9405e-06 // $x=25.5 $y=7.972 $x2=0 $y2=0
371 GND:81 X2/NET4:6 4.06554e-05 // $x=26.75 $y=7.895 $x2=0 $y2=0
372 GND:586 X2/NET4:6 2.55478e-06 // $x=25.5 $y=7.972 $x2=0 $y2=0
373 GND:587 X2/NET4:6 1.2538e-06 // $x=23.53 $y=7.972 $x2=0 $y2=0
374 GND:1147 X2/NET4:6 2.03124e-06 // $x=23.4 $y=5.99 $x2=0 $y2=0
375 GND:1383 X2/NET4:6 8.45114e-06 // $x=23.625 $y=6.155 $x2=0 $y2=0
376 GND:1433 X2/NET4:6 3.84667e-07 // $x=23.625 $y=5.99 $x2=0 $y2=0
377 x2/x11/MN15:s X2/NET4:6 1.0591e-05 // $x=23.29 $y=6.265 $x2=0 $y2=0
378 GND:286 X2/NET4:11 8.12865e-06 // $x=22.925 $y=5.96 $x2=0 $y2=0
379 GND:81 X2/NET4:15 5.35544e-05 // $x=26.75 $y=7.895 $x2=0 $y2=0
380 GND:586 X2/NET4:15 3.37137e-07 // $x=25.5 $y=7.972 $x2=0 $y2=0
381 GND:617 X2/NET4:15 6.80184e-07 // $x=27.845 $y=8.727 $x2=0 $y2=0