*SPEF "2.0"
*DESIGN "SKY130_OSU_RING_OSCILLATOR_MPR2YA_8_B0R2"
*DATE "Thu Nov  2 18:11:28 2023"
*VENDOR "Mentor Graphics Corp."
*PROGRAM "Calibre xRC"
*VERSION "v2023.2_27.15"
*DESIGN_FLOW "extraction"
*DIVIDER /
*DELIMITER :
*BUS_DELIMITER []
*T_UNIT 1 NS
*C_UNIT 1 PF
*R_UNIT 1 OHM
*L_UNIT 1 HENRY



// CIRCUIT TEMPERATURE 30C
// NOMINAL TEMPERATURE 30C

*PORTS 
 X5_Y1 B
 VDD B
 X4_Y1 B
 X3_Y1 B
 X2_Y1 B
 X1_Y1 B
 S5 B
 S4 B
 S3 B
 S2 B
 S1 B
 GND B

*D_NET GND 0.0489226
*CONN
*P GND B 
*I x1/x11/MN10:g I 
*I x1/x11/MN7:g I 
*I x2/x11/MN10:g I 
*I x2/x11/MN7:g I 
*I x3/x11/MN10:g I 
*I x3/x11/MN7:g I 
*I x4/x11/MN10:g I 
*I x4/x11/MN7:g I 
*I x5/x11/MN10:g I 
*I x5/x11/MN7:g I 
*I x1/x11/MP9:g I 
*I x1/x11/MP6:g I 
*I x2/x11/MP9:g I 
*I x2/x11/MP6:g I 
*I x3/x11/MP9:g I 
*I x3/x11/MP6:g I 
*I x4/x11/MP9:g I 
*I x4/x11/MP6:g I 
*I x5/x11/MP9:g I 
*I x5/x11/MP6:g I 
*I x1/x11/MN9:s B 
*I x1/x11/MN8:d B 
*I x1/x11/MN5:s B 
*I x1/x11/MN0:d B 
*I x1/x11/MN1:s B 
*I x1/x11/MN3:s B 
*I x1/x8/MN2:s B 
*I x1/x8/MN0:s B 
*I x1/x11/MN2:d B 
*I x1/x11/MN11:s B 
*I x1/x11/MN12:d B 
*I x1/x11/MN13:s B 
*I x1/x11/MN14:d B 
*I x1/x3/MN2:s B 
*I x1/x2/MN2:s B 
*I x1/x4/MN0:s B 
*I x1/x6/MN0:s B 
*I x1/x5/MN0:s B 
*I x1/x7/MN0:s B 
*I x2/x11/MN9:s B 
*I x2/x11/MN8:d B 
*I x2/x11/MN5:s B 
*I x2/x11/MN0:d B 
*I x2/x11/MN1:s B 
*I x2/x11/MN3:s B 
*I x2/x8/MN2:s B 
*I x2/x8/MN0:s B 
*I x2/x11/MN2:d B 
*I x2/x11/MN11:s B 
*I x2/x11/MN12:d B 
*I x2/x11/MN13:s B 
*I x2/x11/MN14:d B 
*I x2/x3/MN2:s B 
*I x2/x2/MN2:s B 
*I x2/x4/MN0:s B 
*I x2/x6/MN0:s B 
*I x2/x5/MN0:s B 
*I x2/x7/MN0:s B 
*I x3/x11/MN9:s B 
*I x3/x11/MN8:d B 
*I x3/x11/MN5:s B 
*I x3/x11/MN0:d B 
*I x3/x11/MN1:s B 
*I x3/x11/MN3:s B 
*I x3/x8/MN2:s B 
*I x3/x8/MN0:s B 
*I x3/x11/MN2:d B 
*I x3/x11/MN11:s B 
*I x3/x11/MN12:d B 
*I x3/x11/MN13:s B 
*I x3/x11/MN14:d B 
*I x3/x3/MN2:s B 
*I x3/x2/MN2:s B 
*I x3/x4/MN0:s B 
*I x3/x6/MN0:s B 
*I x3/x5/MN0:s B 
*I x3/x7/MN0:s B 
*I x4/x11/MN9:s B 
*I x4/x11/MN8:d B 
*I x4/x11/MN5:s B 
*I x4/x11/MN0:d B 
*I x4/x11/MN1:s B 
*I x4/x11/MN3:s B 
*I x4/x8/MN2:s B 
*I x4/x8/MN0:s B 
*I x4/x11/MN2:d B 
*I x4/x11/MN11:s B 
*I x4/x11/MN12:d B 
*I x4/x11/MN13:s B 
*I x4/x11/MN14:d B 
*I x4/x3/MN2:s B 
*I x4/x2/MN2:s B 
*I x4/x4/MN0:s B 
*I x4/x6/MN0:s B 
*I x4/x5/MN0:s B 
*I x4/x7/MN0:s B 
*I x5/x11/MN9:s B 
*I x5/x11/MN8:d B 
*I x5/x11/MN5:s B 
*I x5/x11/MN0:d B 
*I x5/x11/MN1:s B 
*I x5/x11/MN3:s B 
*I x5/x8/MN2:s B 
*I x5/x8/MN0:s B 
*I x5/x11/MN2:d B 
*I x5/x11/MN11:s B 
*I x5/x11/MN12:d B 
*I x5/x11/MN13:s B 
*I x5/x11/MN14:d B 
*I x5/x3/MN2:s B 
*I x5/x2/MN2:s B 
*I x5/x4/MN0:s B 
*I x5/x6/MN0:s B 
*I x5/x5/MN0:s B 
*I x5/x7/MN0:s B 
*I x1/x8/MP1:s B 
*I x2/x8/MP1:s B 
*I x3/x8/MP1:s B 
*I x4/x8/MP1:s B 
*I x5/x8/MP1:s B 

*CAP
0 GND:9 X1/NET7:4 3.401e-05 // $x=8.62 $y=0.87 $x2=6.495 $y2=2.17
1 GND:357 X1/NET7:4 1.05018e-06 // $x=9.49 $y=0.152 $x2=6.495 $y2=2.17
2 x1/x11/MN2:d X1/NET7:4 2.63233e-06 // $x=6.74 $y=1.735 $x2=6.495 $y2=2.17
3 GND:9 X1/NET7:18 4.77199e-07 // $x=8.62 $y=0.87 $x2=6.135 $y2=3.085
4 GND:357 X1/NET7:18 2.51633e-07 // $x=9.49 $y=0.152 $x2=6.135 $y2=3.085
5 GND:9 X1/NET7:26 3.58449e-06 // $x=8.62 $y=0.87 $x2=4.745 $y2=2.495
6 GND:357 X1/NET7:26 6.04001e-06 // $x=9.49 $y=0.152 $x2=4.745 $y2=2.495
7 x1/x11/MN1:s X1/NET7:26 9.03965e-06 // $x=4.82 $y=1.735 $x2=4.745 $y2=2.495
8 GND:357 X1/NET7:29 7.33874e-07 // $x=9.49 $y=0.152 $x2=4.745 $y2=2.66
9 GND:9 x1/x11/MN2:s 4.32758e-06 // $x=8.62 $y=0.87 $x2=6.32 $y2=1.735
10 GND:357 x1/x11/MN2:s 1.22849e-05 // $x=9.49 $y=0.152 $x2=6.32 $y2=1.735
11 x1/x11/MN1:s x1/x11/MN2:s 4.24083e-07 // $x=4.82 $y=1.735 $x2=6.32 $y2=1.735
12 x1/x11/MN2:d x1/x11/MN2:s 1.92952e-05 // $x=6.74 $y=1.735 $x2=6.32 $y2=1.735
13 GND:24 X1/NET4:1 2.74513e-05 // $x=5.78 $y=8.575 $x2=6.52 $y2=2.035
14 GND:25 X1/NET4:1 6.43356e-07 // $x=20.955 $y=8.727 $x2=6.52 $y2=2.035
15 GND:330 X1/NET4:1 5.8742e-07 // $x=10.555 $y=8.727 $x2=6.52 $y2=2.035
16 GND:343 X1/NET4:1 4.93829e-06 // $x=6.01 $y=6.4 $x2=6.52 $y2=2.035
17 GND:24 X1/NET4:2 1.78005e-05 // $x=5.78 $y=8.575 $x2=6.52 $y2=2.035
18 GND:343 X1/NET4:2 5.49277e-06 // $x=6.01 $y=6.4 $x2=6.52 $y2=2.035
19 GND:10 X1/NET4:4 8.64703e-06 // $x=2.49 $y=0.87 $x2=6.495 $y2=2.17
20 GND:163 X1/NET4:4 1.15033e-05 // $x=2.81 $y=2.5 $x2=6.495 $y2=2.17
21 GND:249 X1/NET4:4 1.4476e-05 // $x=2.905 $y=2.46 $x2=6.495 $y2=2.17
22 GND:312 X1/NET4:4 3.42168e-07 // $x=3.94 $y=0.792 $x2=6.495 $y2=2.17
23 GND:764 X1/NET4:4 5.81928e-06 // $x=2.81 $y=2.5 $x2=6.495 $y2=2.17
24 x1/x11/MP6:g X1/NET4:4 4.19857e-06 // $x=2.825 $y=3.485 $x2=6.495 $y2=2.17
25 GND:1006 X1/NET4:4 3.5647e-06 // $x=2.825 $y=2.66 $x2=6.495 $y2=2.17
26 GND:9 X1/NET4:5 2.64067e-06 // $x=8.62 $y=0.87 $x2=6.135 $y2=3.085
27 GND:163 X1/NET4:5 4.75725e-06 // $x=2.81 $y=2.5 $x2=6.135 $y2=3.085
28 x1/x11/MP6:g X1/NET4:5 1.06976e-06 // $x=2.825 $y=3.485 $x2=6.135 $y2=3.085
29 GND:9 X1/NET4:6 5.89726e-07 // $x=8.62 $y=0.87 $x2=6.135 $y2=3.085
30 x1/x11/MN5:s X1/NET4:8 2.52761e-07 // $x=3.86 $y=1.735 $x2=0 $y2=0
31 GND:10 X1/NET4:13 5.56623e-06 // $x=2.49 $y=0.87 $x2=0 $y2=0
32 GND:764 X1/NET4:13 2.70654e-06 // $x=2.81 $y=2.5 $x2=0 $y2=0
33 x1/x11/MP9:g X1/NET4:13 1.73795e-06 // $x=1.385 $y=3.485 $x2=0 $y2=0
34 GND:1004 X1/NET4:13 8.40364e-07 // $x=1.385 $y=2.66 $x2=0 $y2=0
35 GND:163 X1/NET4:19 3.73535e-05 // $x=2.81 $y=2.5 $x2=6.395 $y2=3.31
36 GND:249 X1/NET4:19 6.19824e-06 // $x=2.905 $y=2.46 $x2=6.395 $y2=3.31
37 GND:764 X1/NET4:19 1.45795e-06 // $x=2.81 $y=2.5 $x2=6.395 $y2=3.31
38 GND:1006 X1/NET4:19 6.56674e-07 // $x=2.825 $y=2.66 $x2=6.395 $y2=3.31
39 GND:9 X1/NET4:23 1.05319e-06 // $x=8.62 $y=0.87 $x2=6.492 $y2=2.035
40 GND:9 X1/NET4:27 4.32936e-07 // $x=8.62 $y=0.87 $x2=4.745 $y2=2.06
41 x1/x11/MN1:s X1/NET4:27 1.25267e-06 // $x=4.82 $y=1.735 $x2=4.745 $y2=2.06
42 GND:24 X1/NET4:31 1.76659e-05 // $x=5.78 $y=8.575 $x2=6.32 $y2=1.735
43 GND:25 X1/NET4:31 1.32423e-05 // $x=20.955 $y=8.727 $x2=6.32 $y2=1.735
44 GND:330 X1/NET4:31 3.25882e-06 // $x=10.555 $y=8.727 $x2=6.32 $y2=1.735
45 GND:343 X1/NET4:31 2.77715e-06 // $x=6.01 $y=6.4 $x2=6.32 $y2=1.735
46 GND:9 X1/NET4:37 1.23335e-05 // $x=8.62 $y=0.87 $x2=0 $y2=0
47 x1/x11/MN5:s X1/NET4:37 8.1421e-07 // $x=3.86 $y=1.735 $x2=0 $y2=0
48 GND:9 X1/NET4:38 2.45837e-05 // $x=8.62 $y=0.87 $x2=0 $y2=0
49 GND:163 X1/NET4:38 5.06683e-06 // $x=2.81 $y=2.5 $x2=0 $y2=0
50 GND:235 X1/NET4:38 3.59265e-05 // $x=2.947 $y=2.33 $x2=0 $y2=0
51 GND:249 X1/NET4:38 4.55871e-05 // $x=2.905 $y=2.46 $x2=0 $y2=0
52 x1/x11/MN5:s X1/NET4:38 3.01009e-06 // $x=3.86 $y=1.735 $x2=0 $y2=0
53 GND:24 X1/NET4:40 1.03727e-05 // $x=5.78 $y=8.575 $x2=0 $y2=0
54 GND:25 X1/NET4:40 5.12606e-06 // $x=20.955 $y=8.727 $x2=0 $y2=0
55 GND:10 X1/NET4:45 1.3832e-05 // $x=2.49 $y=0.87 $x2=0 $y2=0
56 GND:163 X1/NET4:45 6.62665e-07 // $x=2.81 $y=2.5 $x2=0 $y2=0
57 GND:249 X1/NET4:45 1.44924e-06 // $x=2.905 $y=2.46 $x2=0 $y2=0
58 GND:764 X1/NET4:45 1.00093e-05 // $x=2.81 $y=2.5 $x2=0 $y2=0
59 GND:9 X1/NET4:51 4.59106e-05 // $x=8.62 $y=0.87 $x2=0 $y2=0
60 GND:235 X1/NET4:51 7.78346e-07 // $x=2.947 $y=2.33 $x2=0 $y2=0
61 x1/x11/MN5:s X1/NET4:51 1.7816e-06 // $x=3.86 $y=1.735 $x2=0 $y2=0
62 x1/x11/MN1:s X1/NET4:51 4.92767e-06 // $x=4.82 $y=1.735 $x2=0 $y2=0
63 GND:10 X1/NET4:58 1.33991e-05 // $x=2.49 $y=0.87 $x2=0 $y2=0
64 GND:249 X1/NET4:58 8.13487e-05 // $x=2.905 $y=2.46 $x2=0 $y2=0
65 GND:764 X1/NET4:58 7.9933e-06 // $x=2.81 $y=2.5 $x2=0 $y2=0
66 x1/x11/MN9:s X1/NET4:58 3.27034e-06 // $x=1.94 $y=1.735 $x2=0 $y2=0
67 GND:245 X1/NET4:60 3.9172e-06 // $x=2.95 $y=1.13 $x2=0 $y2=0
68 GND:249 X1/NET4:60 2.63742e-05 // $x=2.905 $y=2.46 $x2=0 $y2=0
69 GND:6 X1/NET4:61 2.42453e-05 // $x=5.695 $y=8.727 $x2=0 $y2=0
70 GND:24 X1/NET4:71 1.39377e-05 // $x=5.78 $y=8.575 $x2=0 $y2=0
71 GND:168 X1/NET4:71 9.16761e-06 // $x=5.78 $y=6.4 $x2=0 $y2=0
72 GND:769 X1/NET4:71 7.83755e-06 // $x=5.982 $y=6.245 $x2=0 $y2=0
73 x1/x8/MP1:s X1/NET4:71 1.04126e-05 // $x=5.83 $y=5.015 $x2=0 $y2=0
74 GND:9 X1/NET4:77 1.16135e-05 // $x=8.62 $y=0.87 $x2=0 $y2=0
75 x1/x11/MN1:s X1/NET4:77 1.2153e-06 // $x=4.82 $y=1.735 $x2=0 $y2=0
76 GND:249 X1/NET4:81 5.52112e-06 // $x=2.905 $y=2.46 $x2=0 $y2=0
77 GND:24 X1/NET4:94 7.18263e-07 // $x=5.78 $y=8.575 $x2=0 $y2=0
78 GND:25 X1/NET4:94 2.15467e-06 // $x=20.955 $y=8.727 $x2=0 $y2=0
79 GND:330 X1/NET4:94 1.39846e-05 // $x=10.555 $y=8.727 $x2=0 $y2=0
80 GND:341 X1/NET4:94 1.62681e-05 // $x=6.01 $y=7.855 $x2=0 $y2=0
81 GND:343 X1/NET4:94 1.74452e-05 // $x=6.01 $y=6.4 $x2=0 $y2=0
82 GND:10 X1/NET4:100 2.58606e-07 // $x=2.49 $y=0.87 $x2=0 $y2=0
83 GND:163 X1/NET4:100 1.28889e-06 // $x=2.81 $y=2.5 $x2=0 $y2=0
84 GND:764 X1/NET4:100 3.49081e-05 // $x=2.81 $y=2.5 $x2=0 $y2=0
85 GND:1006 X1/NET4:100 1.80773e-06 // $x=2.825 $y=2.66 $x2=0 $y2=0
86 GND:163 X1/NET4:104 1.96769e-06 // $x=2.81 $y=2.5 $x2=0 $y2=0
87 GND:249 X1/NET4:104 1.00164e-06 // $x=2.905 $y=2.46 $x2=0 $y2=0
88 GND:312 X1/NET4:104 1.80477e-06 // $x=3.94 $y=0.792 $x2=0 $y2=0
89 GND:764 X1/NET4:104 1.43076e-05 // $x=2.81 $y=2.5 $x2=0 $y2=0
90 GND:9 X1/NET4:110 1.54802e-06 // $x=8.62 $y=0.87 $x2=0 $y2=0
91 GND:163 X1/NET4:110 9.49786e-07 // $x=2.81 $y=2.5 $x2=0 $y2=0
92 GND:312 X1/NET4:110 3.87064e-06 // $x=3.94 $y=0.792 $x2=0 $y2=0
93 GND:764 X1/NET4:110 2.93552e-05 // $x=2.81 $y=2.5 $x2=0 $y2=0
94 x1/x11/MP9:g X1/NET4:110 2.69329e-06 // $x=1.385 $y=3.485 $x2=0 $y2=0
95 x1/x11/MP6:g X1/NET4:110 1.90702e-05 // $x=2.825 $y=3.485 $x2=0 $y2=0
96 GND:1004 X1/NET4:110 5.12317e-06 // $x=1.385 $y=2.66 $x2=0 $y2=0
97 GND:1006 X1/NET4:110 1.82853e-06 // $x=2.825 $y=2.66 $x2=0 $y2=0
98 GND:9 X1/NET4:118 4.07933e-06 // $x=8.62 $y=0.87 $x2=0 $y2=0
99 GND:357 X1/NET4:118 8.49893e-06 // $x=9.49 $y=0.152 $x2=0 $y2=0
100 x1/x11/MN1:s X1/NET4:118 1.20251e-05 // $x=4.82 $y=1.735 $x2=0 $y2=0
101 x1/x11/MP9:g x1/x11/MP5:g 5.73204e-05 // $x=1.385 $y=3.485 $x2=0 $y2=0
102 x1/x11/MP6:g x1/x11/MP5:g 3.30175e-06 // $x=2.825 $y=3.485 $x2=0 $y2=0
103 x1/x11/MP6:g x1/x11/MP7:g 5.66876e-05 // $x=2.825 $y=3.485 $x2=0 $y2=0
104 x1/x11/MP6:g x1/x11/MP8:g 5.68163e-05 // $x=2.825 $y=3.485 $x2=0 $y2=0
105 x1/x11/MP6:g x1/x11/MP4:g 3.07563e-06 // $x=2.825 $y=3.485 $x2=0 $y2=0
106 GND:10 X1/NET4:133 4.76824e-06 // $x=2.49 $y=0.87 $x2=0 $y2=0
107 GND:313 X1/NET4:133 6.08696e-06 // $x=2.295 $y=0.792 $x2=0 $y2=0
108 GND:764 X1/NET4:133 1.79209e-05 // $x=2.81 $y=2.5 $x2=0 $y2=0
109 GND:953 X1/NET4:133 3.97949e-05 // $x=1.385 $y=2.495 $x2=0 $y2=0
110 GND:958 X1/NET4:133 9.46585e-07 // $x=2.825 $y=2.495 $x2=0 $y2=0
111 x1/x11/MN9:s X1/NET4:133 1.05786e-05 // $x=1.94 $y=1.735 $x2=0 $y2=0
112 GND:10 X1/NET4:138 4.66103e-06 // $x=2.49 $y=0.87 $x2=0 $y2=0
113 GND:312 X1/NET4:138 5.14121e-06 // $x=3.94 $y=0.792 $x2=0 $y2=0
114 GND:313 X1/NET4:138 1.03847e-06 // $x=2.295 $y=0.792 $x2=0 $y2=0
115 GND:764 X1/NET4:138 1.28419e-05 // $x=2.81 $y=2.5 $x2=0 $y2=0
116 GND:953 X1/NET4:138 1.90594e-06 // $x=1.385 $y=2.495 $x2=0 $y2=0
117 GND:958 X1/NET4:138 3.88482e-05 // $x=2.825 $y=2.495 $x2=0 $y2=0
118 x1/x11/MN9:s X1/NET4:138 9.08904e-06 // $x=1.94 $y=1.735 $x2=0 $y2=0
119 GND:9 X1/NET4:143 4.0228e-06 // $x=8.62 $y=0.87 $x2=0 $y2=0
120 GND:163 X1/NET4:143 3.08767e-07 // $x=2.81 $y=2.5 $x2=0 $y2=0
121 GND:235 X1/NET4:143 8.48095e-07 // $x=2.947 $y=2.33 $x2=0 $y2=0
122 GND:312 X1/NET4:143 6.56939e-06 // $x=3.94 $y=0.792 $x2=0 $y2=0
123 GND:764 X1/NET4:143 1.30356e-06 // $x=2.81 $y=2.5 $x2=0 $y2=0
124 GND:958 X1/NET4:143 3.97683e-05 // $x=2.825 $y=2.495 $x2=0 $y2=0
125 GND:9 X1/NET4:148 3.46202e-06 // $x=8.62 $y=0.87 $x2=0 $y2=0
126 GND:312 X1/NET4:148 6.41094e-06 // $x=3.94 $y=0.792 $x2=0 $y2=0
127 x1/x11/MN5:s X1/NET4:148 1.2714e-05 // $x=3.86 $y=1.735 $x2=0 $y2=0
128 GND:9 X1/NET4:153 3.76796e-06 // $x=8.62 $y=0.87 $x2=0 $y2=0
129 GND:357 X1/NET4:153 6.04969e-06 // $x=9.49 $y=0.152 $x2=0 $y2=0
130 x1/x11/MN1:s X1/NET4:153 1.30203e-05 // $x=4.82 $y=1.735 $x2=0 $y2=0
131 GND:9 X1/NET4:158 5.87943e-06 // $x=8.62 $y=0.87 $x2=0 $y2=0
132 GND:357 X1/NET4:158 6.54284e-06 // $x=9.49 $y=0.152 $x2=0 $y2=0
133 GND:764 X1/NET4:164 6.91565e-06 // $x=2.81 $y=2.5 $x2=0 $y2=0
134 GND:1004 X1/NET4:164 4.3134e-05 // $x=1.385 $y=2.66 $x2=0 $y2=0
135 GND:764 X1/NET4:166 5.06261e-06 // $x=2.81 $y=2.5 $x2=0 $y2=0
136 GND:1006 X1/NET4:166 4.50744e-05 // $x=2.825 $y=2.66 $x2=0 $y2=0
137 GND:163 X1/NET4:168 6.83811e-07 // $x=2.81 $y=2.5 $x2=0 $y2=0
138 GND:249 X1/NET4:168 3.91556e-07 // $x=2.905 $y=2.46 $x2=0 $y2=0
139 GND:312 X1/NET4:168 1.03105e-06 // $x=3.94 $y=0.792 $x2=0 $y2=0
140 GND:764 X1/NET4:168 1.89087e-06 // $x=2.81 $y=2.5 $x2=0 $y2=0
141 GND:1006 X1/NET4:168 4.40697e-05 // $x=2.825 $y=2.66 $x2=0 $y2=0
142 GND:312 X1/NET4:170 1.1164e-06 // $x=3.94 $y=0.792 $x2=0 $y2=0
143 GND:1006 X1/NET4:170 1.00581e-06 // $x=2.825 $y=2.66 $x2=0 $y2=0
144 GND:9 X1/NET4:174 4.25817e-07 // $x=8.62 $y=0.87 $x2=0 $y2=0
145 GND:357 X1/NET4:174 1.48648e-06 // $x=9.49 $y=0.152 $x2=0 $y2=0
146 GND:24 x1/x8/MP1:d 7.18263e-07 // $x=5.78 $y=8.575 $x2=0 $y2=0
147 GND:168 x1/x8/MP1:d 7.17829e-06 // $x=5.78 $y=6.4 $x2=0 $y2=0
148 GND:343 x1/x8/MP1:d 4.47144e-06 // $x=6.01 $y=6.4 $x2=0 $y2=0
149 GND:769 x1/x8/MP1:d 7.25535e-05 // $x=5.982 $y=6.245 $x2=0 $y2=0
150 x1/x8/MP1:s x1/x8/MP1:d 5.35635e-05 // $x=5.83 $y=5.015 $x2=0 $y2=0
151 GND:9 X1/NET9:4 4.4776e-06 // $x=8.62 $y=0.87 $x2=6.495 $y2=2.17
152 GND:9 X1/NET9:6 0.000110833 // $x=8.62 $y=0.87 $x2=6.135 $y2=3.085
153 GND:173 X1/NET9:6 2.05941e-05 // $x=9.49 $y=0.87 $x2=6.135 $y2=3.085
154 GND:357 X1/NET9:6 3.82615e-06 // $x=9.49 $y=0.152 $x2=6.135 $y2=3.085
155 x1/x11/MN12:d X1/NET9:6 1.01735e-05 // $x=7.7 $y=1.735 $x2=6.135 $y2=3.085
156 x1/x11/MN14:d X1/NET9:6 6.89766e-06 // $x=8.66 $y=1.735 $x2=6.135 $y2=3.085
157 GND:173 X1/NET9:26 8.49873e-07 // $x=9.49 $y=0.87 $x2=4.745 $y2=2.495
158 GND:357 X1/NET9:26 2.29671e-06 // $x=9.49 $y=0.152 $x2=4.745 $y2=2.495
159 x1/x11/MN14:d X1/NET9:26 1.68843e-05 // $x=8.66 $y=1.735 $x2=4.745 $y2=2.495
160 GND:9 X1/NET9:31 2.47044e-06 // $x=8.62 $y=0.87 $x2=6.32 $y2=1.735
161 GND:173 X1/NET9:31 2.66362e-06 // $x=9.49 $y=0.87 $x2=6.32 $y2=1.735
162 GND:357 X1/NET9:31 6.51501e-06 // $x=9.49 $y=0.152 $x2=6.32 $y2=1.735
163 x1/x11/MN14:d X1/NET9:31 1.24244e-05 // $x=8.66 $y=1.735 $x2=6.32 $y2=1.735
164 GND:357 X1/NET9:37 9.50819e-07 // $x=9.49 $y=0.152 $x2=0 $y2=0
165 GND:9 x1/x11/MN11:d 9.72522e-06 // $x=8.62 $y=0.87 $x2=0 $y2=0
166 GND:357 x1/x11/MN11:d 2.56633e-05 // $x=9.49 $y=0.152 $x2=0 $y2=0
167 x1/x11/MN2:d x1/x11/MN11:d 1.8397e-05 // $x=6.74 $y=1.735 $x2=0 $y2=0
168 x1/x11/MN12:d x1/x11/MN11:d 2.37121e-05 // $x=7.7 $y=1.735 $x2=0 $y2=0
169 GND:9 X1/NET8:1 1.88885e-06 // $x=8.62 $y=0.87 $x2=6.52 $y2=2.035
170 GND:173 X1/NET8:1 6.88936e-07 // $x=9.49 $y=0.87 $x2=6.52 $y2=2.035
171 GND:9 X1/NET8:9 5.06065e-06 // $x=8.62 $y=0.87 $x2=0 $y2=0
172 x1/x11/MN14:d X1/NET8:9 4.89879e-07 // $x=8.66 $y=1.735 $x2=0 $y2=0
173 GND:173 X1/NET8:23 2.04215e-07 // $x=9.49 $y=0.87 $x2=6.492 $y2=2.035
174 GND:357 X1/NET8:23 3.29253e-07 // $x=9.49 $y=0.152 $x2=6.492 $y2=2.035
175 x1/x11/MN14:d X1/NET8:23 3.47979e-07 // $x=8.66 $y=1.735 $x2=6.492 $y2=2.035
176 GND:9 x1/x11/MN13:d 4.94412e-06 // $x=8.62 $y=0.87 $x2=4.745 $y2=2.495
177 GND:357 x1/x11/MN13:d 2.06098e-05 // $x=9.49 $y=0.152 $x2=4.745 $y2=2.495
178 x1/x11/MN12:d x1/x11/MN13:d 6.94512e-06 // $x=7.7 $y=1.735 $x2=4.745 $y2=2.495
179 x1/x11/MN14:d x1/x11/MN13:d 1.27233e-05 // $x=8.66 $y=1.735 $x2=4.745 $y2=2.495
180 GND:176 X1/NET1:10 1.93695e-05 // $x=16.01 $y=0.87 $x2=0 $y2=0
181 x1/x11/MN14:d X1/NET1:10 8.09314e-07 // $x=8.66 $y=1.735 $x2=0 $y2=0
182 GND:163 X1/NET1:12 2.00629e-06 // $x=2.81 $y=2.5 $x2=0 $y2=0
183 x1/x11/MN5:s X1/NET1:12 5.12045e-07 // $x=3.86 $y=1.735 $x2=0 $y2=0
184 x1/x3/MN2:s X1/NET1:25 1.11049e-06 // $x=10.515 $y=0.575 $x2=4.745 $y2=2.06
185 GND:9 X1/NET1:38 4.45187e-06 // $x=8.62 $y=0.87 $x2=0 $y2=0
186 GND:235 X1/NET1:38 1.20058e-06 // $x=2.947 $y=2.33 $x2=0 $y2=0
187 GND:249 X1/NET1:38 4.22428e-06 // $x=2.905 $y=2.46 $x2=0 $y2=0
188 x1/x11/MN5:s X1/NET1:38 1.6389e-06 // $x=3.86 $y=1.735 $x2=0 $y2=0
189 GND:176 X1/NET1:42 4.627e-06 // $x=16.01 $y=0.87 $x2=0 $y2=0
190 GND:9 X1/NET1:58 2.1938e-05 // $x=8.62 $y=0.87 $x2=0 $y2=0
191 GND:235 X1/NET1:58 1.98991e-05 // $x=2.947 $y=2.33 $x2=0 $y2=0
192 GND:249 X1/NET1:58 3.27073e-05 // $x=2.905 $y=2.46 $x2=0 $y2=0
193 x1/x11/MN5:s X1/NET1:58 9.19314e-07 // $x=3.86 $y=1.735 $x2=0 $y2=0
194 GND:9 X1/NET1:60 0.000295392 // $x=8.62 $y=0.87 $x2=0 $y2=0
195 GND:173 X1/NET1:60 6.76595e-05 // $x=9.49 $y=0.87 $x2=0 $y2=0
196 GND:176 X1/NET1:60 1.65056e-05 // $x=16.01 $y=0.87 $x2=0 $y2=0
197 GND:357 X1/NET1:60 2.34852e-06 // $x=9.49 $y=0.152 $x2=0 $y2=0
198 GND:9 X1/NET1:61 2.47947e-05 // $x=8.62 $y=0.87 $x2=0 $y2=0
199 GND:245 X1/NET1:61 1.94474e-05 // $x=2.95 $y=1.13 $x2=0 $y2=0
200 GND:173 X1/NET1:63 1.48735e-05 // $x=9.49 $y=0.87 $x2=0 $y2=0
201 x1/x11/MN14:d X1/NET1:63 4.56429e-06 // $x=8.66 $y=1.735 $x2=0 $y2=0
202 GND:25 X1/NET1:71 2.86039e-06 // $x=20.955 $y=8.727 $x2=0 $y2=0
203 GND:370 X1/NET1:71 1.21387e-05 // $x=13.3 $y=8.727 $x2=0 $y2=0
204 GND:384 X1/NET1:71 1.28014e-06 // $x=14.29 $y=8.727 $x2=0 $y2=0
205 x1/x2/MN2:s X1/NET1:71 1.87278e-06 // $x=10.515 $y=7.755 $x2=0 $y2=0
206 GND:9 X1/NET1:83 9.12068e-06 // $x=8.62 $y=0.87 $x2=0 $y2=0
207 GND:163 X1/NET1:83 3.04239e-07 // $x=2.81 $y=2.5 $x2=0 $y2=0
208 GND:312 X1/NET1:83 3.07142e-06 // $x=3.94 $y=0.792 $x2=0 $y2=0
209 GND:357 X1/NET1:83 1.84286e-05 // $x=9.49 $y=0.152 $x2=0 $y2=0
210 GND:764 X1/NET1:83 1.14521e-06 // $x=2.81 $y=2.5 $x2=0 $y2=0
211 x1/x11/MN5:s X1/NET1:83 3.27819e-05 // $x=3.86 $y=1.735 $x2=0 $y2=0
212 x1/x11/MN1:s X1/NET1:83 3.83342e-06 // $x=4.82 $y=1.735 $x2=0 $y2=0
213 GND:176 x1/x3/MN1:s 2.18283e-06 // $x=16.01 $y=0.87 $x2=0 $y2=0
214 GND:366 x1/x3/MN1:s 1.1298e-05 // $x=13.3 $y=0.152 $x2=0 $y2=0
215 GND:382 x1/x3/MN1:s 1.33082e-06 // $x=14.29 $y=0.152 $x2=0 $y2=0
216 x1/x4/MN0:s x1/x3/MN1:s 8.67204e-06 // $x=13.26 $y=0.575 $x2=0 $y2=0
217 GND:9 x1/x11/MP0:s 7.04218e-07 // $x=8.62 $y=0.87 $x2=0 $y2=0
218 GND:39 X2/NET7:4 3.401e-05 // $x=23.88 $y=0.87 $x2=6.495 $y2=2.17
219 GND:447 X2/NET7:4 1.05018e-06 // $x=24.75 $y=0.152 $x2=6.495 $y2=2.17
220 x2/x11/MN2:d X2/NET7:4 2.63233e-06 // $x=22 $y=1.735 $x2=6.495 $y2=2.17
221 GND:39 X2/NET7:26 3.58449e-06 // $x=23.88 $y=0.87 $x2=4.745 $y2=2.495
222 GND:447 X2/NET7:26 6.04001e-06 // $x=24.75 $y=0.152 $x2=4.745 $y2=2.495
223 x2/x11/MN1:s X2/NET7:26 9.03965e-06 // $x=20.08 $y=1.735 $x2=4.745 $y2=2.495
224 GND:447 X2/NET7:29 7.33874e-07 // $x=24.75 $y=0.152 $x2=4.745 $y2=2.66
225 GND:39 x2/x11/MN2:s 4.32741e-06 // $x=23.88 $y=0.87 $x2=6.32 $y2=1.735
226 GND:447 x2/x11/MN2:s 1.19923e-05 // $x=24.75 $y=0.152 $x2=6.32 $y2=1.735
227 x2/x11/MN1:s x2/x11/MN2:s 4.24083e-07 // $x=20.08 $y=1.735 $x2=6.32 $y2=1.735
228 x2/x11/MN2:d x2/x11/MN2:s 1.93177e-05 // $x=22 $y=1.735 $x2=6.32 $y2=1.735
229 GND:54 X2/NET4:1 2.74549e-05 // $x=21.04 $y=8.575 $x2=6.52 $y2=2.035
230 GND:55 X2/NET4:1 3.95891e-07 // $x=36.215 $y=8.727 $x2=6.52 $y2=2.035
231 GND:420 X2/NET4:1 5.8742e-07 // $x=25.815 $y=8.727 $x2=6.52 $y2=2.035
232 GND:433 X2/NET4:1 4.94875e-06 // $x=21.27 $y=6.4 $x2=6.52 $y2=2.035
233 GND:54 X2/NET4:2 1.83808e-05 // $x=21.04 $y=8.575 $x2=6.52 $y2=2.035
234 GND:433 X2/NET4:2 5.49277e-06 // $x=21.27 $y=6.4 $x2=6.52 $y2=2.035
235 GND:40 X2/NET4:4 8.64644e-06 // $x=17.75 $y=0.87 $x2=6.495 $y2=2.17
236 GND:178 X2/NET4:4 1.09772e-05 // $x=18.07 $y=2.5 $x2=6.495 $y2=2.17
237 GND:257 X2/NET4:4 3.6363e-05 // $x=18.165 $y=2.46 $x2=6.495 $y2=2.17
238 GND:402 X2/NET4:4 3.42168e-07 // $x=19.2 $y=0.792 $x2=6.495 $y2=2.17
239 GND:799 X2/NET4:4 5.81928e-06 // $x=18.07 $y=2.5 $x2=6.495 $y2=2.17
240 x2/x11/MP6:g X2/NET4:4 6.23735e-06 // $x=18.085 $y=3.485 $x2=6.495 $y2=2.17
241 GND:1010 X2/NET4:4 3.5647e-06 // $x=18.085 $y=2.66 $x2=6.495 $y2=2.17
242 GND:39 X2/NET4:5 3.22305e-06 // $x=23.88 $y=0.87 $x2=6.135 $y2=3.085
243 GND:178 X2/NET4:5 1.56036e-05 // $x=18.07 $y=2.5 $x2=6.135 $y2=3.085
244 GND:257 X2/NET4:5 1.29824e-06 // $x=18.165 $y=2.46 $x2=6.135 $y2=3.085
245 x2/x11/MP6:g X2/NET4:5 1.06976e-06 // $x=18.085 $y=3.485 $x2=6.135 $y2=3.085
246 GND:39 X2/NET4:6 6.34604e-07 // $x=23.88 $y=0.87 $x2=6.135 $y2=3.085
247 x2/x11/MN5:s X2/NET4:8 1.97151e-06 // $x=19.12 $y=1.735 $x2=0 $y2=0
248 GND:40 X2/NET4:13 5.54765e-06 // $x=17.75 $y=0.87 $x2=0 $y2=0
249 GND:799 X2/NET4:13 7.70348e-06 // $x=18.07 $y=2.5 $x2=0 $y2=0
250 x2/x11/MP9:g X2/NET4:13 1.73795e-06 // $x=16.645 $y=3.485 $x2=0 $y2=0
251 GND:1008 X2/NET4:13 8.40364e-07 // $x=16.645 $y=2.66 $x2=0 $y2=0
252 GND:178 X2/NET4:19 3.6879e-05 // $x=18.07 $y=2.5 $x2=6.395 $y2=3.31
253 GND:257 X2/NET4:19 6.19824e-06 // $x=18.165 $y=2.46 $x2=6.395 $y2=3.31
254 GND:799 X2/NET4:19 1.45795e-06 // $x=18.07 $y=2.5 $x2=6.395 $y2=3.31
255 GND:1010 X2/NET4:19 6.56674e-07 // $x=18.085 $y=2.66 $x2=6.395 $y2=3.31
256 GND:39 X2/NET4:23 1.05319e-06 // $x=23.88 $y=0.87 $x2=6.492 $y2=2.035
257 GND:39 X2/NET4:27 4.32936e-07 // $x=23.88 $y=0.87 $x2=4.745 $y2=2.06
258 x2/x11/MN1:s X2/NET4:27 1.25267e-06 // $x=20.08 $y=1.735 $x2=4.745 $y2=2.06
259 GND:54 X2/NET4:31 1.81291e-05 // $x=21.04 $y=8.575 $x2=6.32 $y2=1.735
260 GND:55 X2/NET4:31 8.48754e-06 // $x=36.215 $y=8.727 $x2=6.32 $y2=1.735
261 GND:420 X2/NET4:31 3.25882e-06 // $x=25.815 $y=8.727 $x2=6.32 $y2=1.735
262 GND:433 X2/NET4:31 5.2119e-06 // $x=21.27 $y=6.4 $x2=6.32 $y2=1.735
263 GND:39 X2/NET4:37 1.23335e-05 // $x=23.88 $y=0.87 $x2=0 $y2=0
264 x2/x11/MN5:s X2/NET4:37 8.1421e-07 // $x=19.12 $y=1.735 $x2=0 $y2=0
265 GND:39 X2/NET4:38 2.45837e-05 // $x=23.88 $y=0.87 $x2=0 $y2=0
266 GND:178 X2/NET4:38 5.06672e-06 // $x=18.07 $y=2.5 $x2=0 $y2=0
267 GND:237 X2/NET4:38 3.59265e-05 // $x=18.207 $y=2.33 $x2=0 $y2=0
268 GND:257 X2/NET4:38 4.55871e-05 // $x=18.165 $y=2.46 $x2=0 $y2=0
269 x2/x11/MN5:s X2/NET4:38 2.98364e-06 // $x=19.12 $y=1.735 $x2=0 $y2=0
270 GND:54 X2/NET4:40 1.03727e-05 // $x=21.04 $y=8.575 $x2=0 $y2=0
271 GND:40 X2/NET4:45 1.11625e-05 // $x=17.75 $y=0.87 $x2=0 $y2=0
272 GND:178 X2/NET4:45 6.62665e-07 // $x=18.07 $y=2.5 $x2=0 $y2=0
273 GND:257 X2/NET4:45 1.44924e-06 // $x=18.165 $y=2.46 $x2=0 $y2=0
274 GND:799 X2/NET4:45 9.60988e-06 // $x=18.07 $y=2.5 $x2=0 $y2=0
275 GND:39 X2/NET4:51 4.88361e-05 // $x=23.88 $y=0.87 $x2=0 $y2=0
276 GND:237 X2/NET4:51 8.98488e-07 // $x=18.207 $y=2.33 $x2=0 $y2=0
277 x2/x11/MN5:s X2/NET4:51 1.7816e-06 // $x=19.12 $y=1.735 $x2=0 $y2=0
278 x2/x11/MN1:s X2/NET4:51 4.92767e-06 // $x=20.08 $y=1.735 $x2=0 $y2=0
279 GND:40 X2/NET4:58 1.33991e-05 // $x=17.75 $y=0.87 $x2=0 $y2=0
280 GND:257 X2/NET4:58 8.13487e-05 // $x=18.165 $y=2.46 $x2=0 $y2=0
281 GND:799 X2/NET4:58 1.25802e-05 // $x=18.07 $y=2.5 $x2=0 $y2=0
282 x2/x11/MN9:s X2/NET4:58 3.27034e-06 // $x=17.2 $y=1.735 $x2=0 $y2=0
283 GND:253 X2/NET4:60 3.9172e-06 // $x=18.21 $y=1.13 $x2=0 $y2=0
284 GND:257 X2/NET4:60 2.44434e-05 // $x=18.165 $y=2.46 $x2=0 $y2=0
285 GND:54 X2/NET4:71 9.51924e-06 // $x=21.04 $y=8.575 $x2=0 $y2=0
286 GND:183 X2/NET4:71 9.16761e-06 // $x=21.04 $y=6.4 $x2=0 $y2=0
287 GND:804 X2/NET4:71 5.62835e-06 // $x=21.242 $y=6.245 $x2=0 $y2=0
288 x2/x8/MP1:s X2/NET4:71 1.04126e-05 // $x=21.09 $y=5.015 $x2=0 $y2=0
289 GND:39 X2/NET4:77 1.16135e-05 // $x=23.88 $y=0.87 $x2=0 $y2=0
290 x2/x11/MN1:s X2/NET4:77 1.2153e-06 // $x=20.08 $y=1.735 $x2=0 $y2=0
291 GND:257 X2/NET4:81 5.52112e-06 // $x=18.165 $y=2.46 $x2=0 $y2=0
292 GND:54 X2/NET4:94 7.18263e-07 // $x=21.04 $y=8.575 $x2=0 $y2=0
293 GND:55 X2/NET4:94 2.15467e-06 // $x=36.215 $y=8.727 $x2=0 $y2=0
294 GND:420 X2/NET4:94 1.39846e-05 // $x=25.815 $y=8.727 $x2=0 $y2=0
295 GND:431 X2/NET4:94 1.62681e-05 // $x=21.27 $y=7.855 $x2=0 $y2=0
296 GND:433 X2/NET4:94 1.745e-05 // $x=21.27 $y=6.4 $x2=0 $y2=0
297 GND:40 X2/NET4:100 2.58606e-07 // $x=17.75 $y=0.87 $x2=0 $y2=0
298 GND:178 X2/NET4:100 1.28889e-06 // $x=18.07 $y=2.5 $x2=0 $y2=0
299 GND:799 X2/NET4:100 3.4882e-05 // $x=18.07 $y=2.5 $x2=0 $y2=0
300 GND:1010 X2/NET4:100 1.80773e-06 // $x=18.085 $y=2.66 $x2=0 $y2=0
301 GND:178 X2/NET4:104 1.96769e-06 // $x=18.07 $y=2.5 $x2=0 $y2=0
302 GND:257 X2/NET4:104 1.00164e-06 // $x=18.165 $y=2.46 $x2=0 $y2=0
303 GND:402 X2/NET4:104 1.80477e-06 // $x=19.2 $y=0.792 $x2=0 $y2=0
304 GND:799 X2/NET4:104 1.43076e-05 // $x=18.07 $y=2.5 $x2=0 $y2=0
305 GND:39 X2/NET4:110 1.54802e-06 // $x=23.88 $y=0.87 $x2=0 $y2=0
306 GND:402 X2/NET4:110 3.8706e-06 // $x=19.2 $y=0.792 $x2=0 $y2=0
307 GND:799 X2/NET4:110 5.36812e-06 // $x=18.07 $y=2.5 $x2=0 $y2=0
308 x2/x11/MP9:g X2/NET4:110 2.69329e-06 // $x=16.645 $y=3.485 $x2=0 $y2=0
309 x2/x11/MP6:g X2/NET4:110 1.76812e-05 // $x=18.085 $y=3.485 $x2=0 $y2=0
310 GND:1008 X2/NET4:110 5.12317e-06 // $x=16.645 $y=2.66 $x2=0 $y2=0
311 GND:1010 X2/NET4:110 1.82853e-06 // $x=18.085 $y=2.66 $x2=0 $y2=0
312 GND:39 X2/NET4:118 6.30655e-06 // $x=23.88 $y=0.87 $x2=0 $y2=0
313 GND:447 X2/NET4:118 7.13185e-06 // $x=24.75 $y=0.152 $x2=0 $y2=0
314 x2/x11/MP9:g x2/x11/MP5:g 5.73204e-05 // $x=16.645 $y=3.485 $x2=0 $y2=0
315 x2/x11/MP6:g x2/x11/MP5:g 3.30175e-06 // $x=18.085 $y=3.485 $x2=0 $y2=0
316 x2/x11/MP6:g x2/x11/MP7:g 5.66876e-05 // $x=18.085 $y=3.485 $x2=0 $y2=0
317 x2/x11/MP6:g x2/x11/MP8:g 5.68163e-05 // $x=18.085 $y=3.485 $x2=0 $y2=0
318 x2/x11/MP6:g x2/x11/MP4:g 3.07563e-06 // $x=18.085 $y=3.485 $x2=0 $y2=0
319 GND:40 X2/NET4:133 4.76824e-06 // $x=17.75 $y=0.87 $x2=0 $y2=0
320 GND:403 X2/NET4:133 6.08696e-06 // $x=17.555 $y=0.792 $x2=0 $y2=0
321 GND:799 X2/NET4:133 2.96833e-05 // $x=18.07 $y=2.5 $x2=0 $y2=0
322 GND:963 X2/NET4:133 3.97949e-05 // $x=16.645 $y=2.495 $x2=0 $y2=0
323 GND:968 X2/NET4:133 9.46585e-07 // $x=18.085 $y=2.495 $x2=0 $y2=0
324 x2/x11/MN9:s X2/NET4:133 1.05786e-05 // $x=17.2 $y=1.735 $x2=0 $y2=0
325 GND:40 X2/NET4:138 4.66103e-06 // $x=17.75 $y=0.87 $x2=0 $y2=0
326 GND:402 X2/NET4:138 5.14121e-06 // $x=19.2 $y=0.792 $x2=0 $y2=0
327 GND:403 X2/NET4:138 1.03847e-06 // $x=17.555 $y=0.792 $x2=0 $y2=0
328 GND:799 X2/NET4:138 1.34102e-05 // $x=18.07 $y=2.5 $x2=0 $y2=0
329 GND:963 X2/NET4:138 1.90594e-06 // $x=16.645 $y=2.495 $x2=0 $y2=0
330 GND:968 X2/NET4:138 3.88482e-05 // $x=18.085 $y=2.495 $x2=0 $y2=0
331 x2/x11/MN9:s X2/NET4:138 9.08904e-06 // $x=17.2 $y=1.735 $x2=0 $y2=0
332 GND:39 X2/NET4:143 4.0228e-06 // $x=23.88 $y=0.87 $x2=0 $y2=0
333 GND:178 X2/NET4:143 3.08767e-07 // $x=18.07 $y=2.5 $x2=0 $y2=0
334 GND:237 X2/NET4:143 8.48095e-07 // $x=18.207 $y=2.33 $x2=0 $y2=0
335 GND:402 X2/NET4:143 6.56939e-06 // $x=19.2 $y=0.792 $x2=0 $y2=0
336 GND:799 X2/NET4:143 1.30356e-06 // $x=18.07 $y=2.5 $x2=0 $y2=0
337 GND:968 X2/NET4:143 3.97683e-05 // $x=18.085 $y=2.495 $x2=0 $y2=0
338 GND:39 X2/NET4:148 3.46202e-06 // $x=23.88 $y=0.87 $x2=0 $y2=0
339 GND:402 X2/NET4:148 6.41094e-06 // $x=19.2 $y=0.792 $x2=0 $y2=0
340 x2/x11/MN5:s X2/NET4:148 1.2714e-05 // $x=19.12 $y=1.735 $x2=0 $y2=0
341 GND:39 X2/NET4:153 3.76796e-06 // $x=23.88 $y=0.87 $x2=0 $y2=0
342 GND:447 X2/NET4:153 6.04969e-06 // $x=24.75 $y=0.152 $x2=0 $y2=0
343 x2/x11/MN1:s X2/NET4:153 1.30203e-05 // $x=20.08 $y=1.735 $x2=0 $y2=0
344 GND:39 X2/NET4:158 5.87943e-06 // $x=23.88 $y=0.87 $x2=0 $y2=0
345 GND:447 X2/NET4:158 6.54284e-06 // $x=24.75 $y=0.152 $x2=0 $y2=0
346 GND:799 X2/NET4:164 7.36536e-06 // $x=18.07 $y=2.5 $x2=0 $y2=0
347 GND:1008 X2/NET4:164 4.3134e-05 // $x=16.645 $y=2.66 $x2=0 $y2=0
348 GND:799 X2/NET4:166 5.06261e-06 // $x=18.07 $y=2.5 $x2=0 $y2=0
349 GND:1010 X2/NET4:166 4.50744e-05 // $x=18.085 $y=2.66 $x2=0 $y2=0
350 GND:178 X2/NET4:168 6.83811e-07 // $x=18.07 $y=2.5 $x2=0 $y2=0
351 GND:257 X2/NET4:168 3.91556e-07 // $x=18.165 $y=2.46 $x2=0 $y2=0
352 GND:402 X2/NET4:168 1.03105e-06 // $x=19.2 $y=0.792 $x2=0 $y2=0
353 GND:799 X2/NET4:168 1.89087e-06 // $x=18.07 $y=2.5 $x2=0 $y2=0
354 GND:1010 X2/NET4:168 4.40697e-05 // $x=18.085 $y=2.66 $x2=0 $y2=0
355 GND:402 X2/NET4:170 1.1164e-06 // $x=19.2 $y=0.792 $x2=0 $y2=0
356 GND:1010 X2/NET4:170 1.00581e-06 // $x=18.085 $y=2.66 $x2=0 $y2=0
357 GND:39 X2/NET4:174 4.25817e-07 // $x=23.88 $y=0.87 $x2=0 $y2=0
358 GND:447 X2/NET4:174 1.48648e-06 // $x=24.75 $y=0.152 $x2=0 $y2=0
359 GND:54 x2/x8/MP1:d 7.18263e-07 // $x=21.04 $y=8.575 $x2=0 $y2=0
360 GND:183 x2/x8/MP1:d 7.17829e-06 // $x=21.04 $y=6.4 $x2=0 $y2=0
361 GND:433 x2/x8/MP1:d 4.47144e-06 // $x=21.27 $y=6.4 $x2=0 $y2=0
362 GND:804 x2/x8/MP1:d 7.25449e-05 // $x=21.242 $y=6.245 $x2=0 $y2=0
363 x2/x8/MP1:s x2/x8/MP1:d 5.35635e-05 // $x=21.09 $y=5.015 $x2=0 $y2=0
364 GND:39 X2/NET9:4 4.4776e-06 // $x=23.88 $y=0.87 $x2=6.495 $y2=2.17
365 GND:39 X2/NET9:6 9.28185e-05 // $x=23.88 $y=0.87 $x2=6.135 $y2=3.085
366 GND:188 X2/NET9:6 2.06284e-05 // $x=24.75 $y=0.87 $x2=6.135 $y2=3.085
367 GND:447 X2/NET9:6 5.85368e-06 // $x=24.75 $y=0.152 $x2=6.135 $y2=3.085
368 x2/x11/MN12:d X2/NET9:6 1.01735e-05 // $x=22.96 $y=1.735 $x2=6.135 $y2=3.085
369 x2/x11/MN14:d X2/NET9:6 6.89756e-06 // $x=23.92 $y=1.735 $x2=6.135 $y2=3.085
370 GND:188 X2/NET9:26 8.49873e-07 // $x=24.75 $y=0.87 $x2=4.745 $y2=2.495
371 GND:447 X2/NET9:26 2.29671e-06 // $x=24.75 $y=0.152 $x2=4.745 $y2=2.495
372 x2/x11/MN14:d X2/NET9:26 1.68843e-05 // $x=23.92 $y=1.735 $x2=4.745 $y2=2.495
373 GND:39 X2/NET9:31 2.47044e-06 // $x=23.88 $y=0.87 $x2=6.32 $y2=1.735
374 GND:188 X2/NET9:31 2.66362e-06 // $x=24.75 $y=0.87 $x2=6.32 $y2=1.735
375 GND:447 X2/NET9:31 6.51501e-06 // $x=24.75 $y=0.152 $x2=6.32 $y2=1.735
376 x2/x11/MN14:d X2/NET9:31 1.24244e-05 // $x=23.92 $y=1.735 $x2=6.32 $y2=1.735
377 GND:447 X2/NET9:37 9.50819e-07 // $x=24.75 $y=0.152 $x2=0 $y2=0
378 GND:39 x2/x11/MN11:d 9.72521e-06 // $x=23.88 $y=0.87 $x2=0 $y2=0
379 GND:447 x2/x11/MN11:d 2.56633e-05 // $x=24.75 $y=0.152 $x2=0 $y2=0
380 x2/x11/MN2:d x2/x11/MN11:d 1.8397e-05 // $x=22 $y=1.735 $x2=0 $y2=0
381 x2/x11/MN12:d x2/x11/MN11:d 2.37121e-05 // $x=22.96 $y=1.735 $x2=0 $y2=0
382 GND:39 X2/NET8:1 1.88885e-06 // $x=23.88 $y=0.87 $x2=6.52 $y2=2.035
383 GND:188 X2/NET8:1 6.88936e-07 // $x=24.75 $y=0.87 $x2=6.52 $y2=2.035
384 GND:39 X2/NET8:9 5.06065e-06 // $x=23.88 $y=0.87 $x2=0 $y2=0
385 x2/x11/MN14:d X2/NET8:9 4.89879e-07 // $x=23.92 $y=1.735 $x2=0 $y2=0
386 GND:188 X2/NET8:23 2.04215e-07 // $x=24.75 $y=0.87 $x2=6.492 $y2=2.035
387 GND:447 X2/NET8:23 3.29253e-07 // $x=24.75 $y=0.152 $x2=6.492 $y2=2.035