*SPEF "2.0"
*DESIGN "SKY130_OSU_RING_OSCILLATOR_MPR2AT_8_B0R1"
*DATE "Fri Nov  3 09:47:31 2023"
*VENDOR "Mentor Graphics Corp."
*PROGRAM "Calibre xRC"
*VERSION "v2023.2_27.15"
*DESIGN_FLOW "extraction"
*DIVIDER /
*DELIMITER :
*BUS_DELIMITER []
*T_UNIT 1 NS
*C_UNIT 1 PF
*R_UNIT 1 OHM
*L_UNIT 1 HENRY



// CIRCUIT TEMPERATURE 30C
// NOMINAL TEMPERATURE 30C

*PORTS 
 X5_Y1 B
 X4_Y1 B
 X3_Y1 B
 X2_Y1 B
 X1_Y1 B
 VDD B
 START B
 S5 B
 S4 B
 S3 B
 S2 B
 S1 B
 GND B

*D_NET X1/NET7 0.000574624
*CONN
*I x1/x1/MN8:s B 
*I x1/x1/MP8:s B 

*CAP
0 X1/NET7:1 GND:19 2.56516e-05 // $x=-1.482 $y=2.62 $x2=0.185 $y2=0.945
1 X1/NET7:6 GND:19 1.25213e-05 // $x=-1.404 $y=3.515 $x2=0.185 $y2=0.945
2 x1/x1/MN8:s GND:19 1.09469e-05 // $x=-1.41 $y=1.885 $x2=0.185 $y2=0.945
3 X1/NET7:1 GND:419 5.79787e-07 // $x=-1.482 $y=2.62 $x2=0.76 $y2=0.867
4 x1/x1/MN8:s GND:419 2.84627e-05 // $x=-1.41 $y=1.885 $x2=0.76 $y2=0.867
5 x1/x1/MN8:s x1/x1/MN8:d 1.41527e-05 // $x=-1.41 $y=1.885 $x2=-0.97 $y2=1.885
6 X1/NET7:2 X1/NET4:10 1.25613e-05 // $x=-1.482 $y=2.988 $x2=0 $y2=0
7 X1/NET7:2 X1/NET4:48 5.30206e-06 // $x=-1.482 $y=2.988 $x2=14.055 $y2=8.69
8 X1/NET7:6 X1/NET4:48 5.93946e-06 // $x=-1.404 $y=3.515 $x2=14.055 $y2=8.69
9 X1/NET7:6 X1/NET4:66 7.91335e-07 // $x=-1.404 $y=3.515 $x2=19.215 $y2=1.65
10 X1/NET7:1 X1/NET4:74 9.46881e-06 // $x=-1.482 $y=2.62 $x2=24.275 $y2=1.65
11 X1/NET7:2 X1/NET4:74 5.78796e-06 // $x=-1.482 $y=2.988 $x2=24.275 $y2=1.65
12 X1/NET7:6 X1/NET4:74 3.26709e-05 // $x=-1.404 $y=3.515 $x2=24.275 $y2=1.65
13 x1/x1/MN8:s X1/NET4:74 5.60913e-06 // $x=-1.41 $y=1.885 $x2=24.275 $y2=1.65
14 X1/NET7:6 X1/NET4:78 2.79736e-07 // $x=-1.404 $y=3.515 $x2=27.035 $y2=1.65
15 X1/NET7:6 X1/NET4:103 1.00187e-05 // $x=-1.404 $y=3.515 $x2=45.165 $y2=0.945
16 X1/NET7:2 X1/NET4:125 2.56075e-07 // $x=-1.482 $y=2.988 $x2=43.08 $y2=8.727
17 X1/NET7:6 X1/X1/13:9 5.67653e-06 // $x=-1.404 $y=3.515 $x2=0.262 $y2=8.727
18 X1/NET7:1 X1/X1/13:15 4.36295e-06 // $x=-1.482 $y=2.62 $x2=0.245 $y2=3.23
19 x1/x1/MN8:s X1/X1/13:15 4.15152e-07 // $x=-1.41 $y=1.885 $x2=0.245 $y2=3.23
20 X1/NET7:1 X1/X1/13:25 5.15926e-06 // $x=-1.482 $y=2.62 $x2=2.21 $y2=0.945
21 X1/NET7:2 X1/X1/13:25 6.02585e-06 // $x=-1.482 $y=2.988 $x2=2.21 $y2=0.945
22 X1/NET7:6 X1/X1/13:25 5.4069e-06 // $x=-1.404 $y=3.515 $x2=2.21 $y2=0.945
23 X1/NET7:1 X1/X1/13:39 5.96819e-07 // $x=-1.482 $y=2.62 $x2=24.92 $y2=8.727
24 x1/x1/MN8:s X1/X1/13:39 3.40297e-07 // $x=-1.41 $y=1.885 $x2=24.92 $y2=8.727
25 X1/NET7:6 x1/x1/MP8:g 1.09531e-05 // $x=-1.404 $y=3.515 $x2=0 $y2=0
26 X1/NET7:22 x1/x1/MP8:g 1.96756e-05 // $x=-1.439 $y=3.67 $x2=0 $y2=0
27 X1/NET7:1 X1/X1/13:60 3.81953e-06 // $x=-1.482 $y=2.62 $x2=18.275 $y2=3.245
28 X1/NET7:2 X1/X1/13:60 3.03369e-07 // $x=-1.482 $y=2.988 $x2=18.275 $y2=3.245
29 x1/x1/MN8:s X1/X1/13:60 1.56993e-05 // $x=-1.41 $y=1.885 $x2=18.275 $y2=3.245
30 X1/NET7:2 X1/X1/13:81 5.27613e-07 // $x=-1.482 $y=2.988 $x2=42.845 $y2=8.727
31 X1/NET7:2 x1/x1/MP0:s 1.09447e-05 // $x=-1.482 $y=2.988 $x2=31.98 $y2=8.69
32 X1/NET7:6 x1/x1/MP0:s 5.68354e-06 // $x=-1.404 $y=3.515 $x2=31.98 $y2=8.69
33 X1/NET7:22 x1/x1/MP0:s 2.30913e-06 // $x=-1.439 $y=3.67 $x2=31.98 $y2=8.69
34 X1/NET7:1 X1/X1/9:10 2.90474e-07 // $x=-1.482 $y=2.62 $x2=0 $y2=0
35 X1/NET7:6 NET6:29 1.40671e-05 // $x=-1.404 $y=3.515 $x2=4.97 $y2=0.945
36 X1/NET7:1 VDD:5 1.57865e-06 // $x=-1.482 $y=2.62 $x2=-3.799 $y2=8.69
37 X1/NET7:6 VDD:5 3.12723e-06 // $x=-1.404 $y=3.515 $x2=-3.799 $y2=8.69
38 X1/NET7:22 VDD:5 1.62118e-06 // $x=-1.439 $y=3.67 $x2=-3.799 $y2=8.69
39 X1/NET7:6 VDD:6 5.94086e-05 // $x=-1.404 $y=3.515 $x2=0 $y2=0
40 X1/NET7:22 VDD:6 4.38507e-06 // $x=-1.439 $y=3.67 $x2=0 $y2=0
41 X1/NET7:6 VDD:201 5.79972e-07 // $x=-1.404 $y=3.515 $x2=79.43 $y2=0.945
42 X1/NET7:22 VDD:201 1.08397e-05 // $x=-1.439 $y=3.67 $x2=79.43 $y2=0.945
43 X1/NET7:6 x1/x1/MP8:d 9.93626e-06 // $x=-1.404 $y=3.515 $x2=0 $y2=0
44 X1/NET7:6 x1/x1/MP1:s 1.64573e-06 // $x=-1.404 $y=3.515 $x2=0 $y2=0
45 X1/NET7:6 X1/X1/14:2 1.57671e-06 // $x=-1.404 $y=3.515 $x2=0.262 $y2=8.727
46 x1/x1/MN8:s 2.03922e-05 // $x=-1.41 $y=1.885
47 X1/NET7:22 3.39139e-05 // $x=-1.439 $y=3.67
48 X1/NET7:6 0.000103084 // $x=-1.404 $y=3.515
49 X1/NET7:2 1.50581e-05 // $x=-1.482 $y=2.988
50 X1/NET7:1 1.42192e-05 // $x=-1.482 $y=2.62

*RES
51 X1/NET7:22 x1/x1/MP8:s 4.87469 // $w=0.407 $lvl=li $x=-1.439 $y=3.605 $x2=-1.284 $y2=3.605 $l=0.155
52 X1/NET7:20 x1/x1/MN8:s 13.8182 // $w=0.264 $lvl=li $x=-1.362 $y=2.355 $x2=-1.362 $y2=2.07 $l=0.285
53 X1/NET7:8 X1/NET7:22 9.3 // $w=0.17 $lvl=mcon $x=-1.439 $y=3.67 $x2=-1.439 $y2=3.67 $l=0.17 $count=1
54 X1/NET7:6 X1/NET7:8 0.093599 // $w=0.207 $lvl=m1 $x=-1.415 $y=3.515 $x2=-1.415 $y2=3.67 $l=0.155
55 X1/NET7:4 X1/NET7:20 9.3 // $w=0.17 $lvl=mcon $x=-1.434 $y=2.355 $x2=-1.434 $y2=2.355 $l=0.17 $count=1
56 X1/NET7:2 X1/NET7:6 0.329593 // $w=0.207 $lvl=m1 $x=-1.482 $y=2.988 $x2=-1.415 $y2=3.515 $l=0.559498
57 X1/NET7:1 X1/NET7:4 0.178996 // $w=0.194 $lvl=m1 $x=-1.482 $y=2.62 $x2=-1.44 $y2=2.355 $l=0.285228
58 X1/NET7:1 X1/NET7:2 0.433962 // $w=0.106 $lvl=m1 $x=-1.482 $y=2.62 $x2=-1.482 $y2=2.988 $l=0.368

*END

*D_NET GND 0.0640096
*CONN
*P GND B 
*I x1/x1/MN1:g I 
*I x1/x1/MN6:g I 
*I x2/x1/MN1:g I 
*I x2/x1/MN6:g I 
*I x3/x1/MN1:g I 
*I x3/x1/MN6:g I 
*I x4/x1/MN1:g I 
*I x4/x1/MN6:g I 
*I x5/x1/MN1:g I 
*I x5/x1/MN6:g I 
*I x1/x1/MP1:g I 
*I x1/x1/MP5:g I 
*I x2/x1/MP1:g I 
*I x2/x1/MP5:g I 
*I x3/x1/MP1:g I 
*I x3/x1/MP5:g I 
*I x4/x1/MP1:g I 
*I x4/x1/MP5:g I 
*I x5/x1/MP1:g I 
*I x5/x1/MP5:g I 
*I x6/MN2:s B 
*I x1/x1/MN8:d B 
*I x1/x1/MN0:s B 
*I x1/x1/MN4:s B 
*I x1/x1/MN7:d B 
*I x1/x1/MN2:s B 
*I x1/x1/MN17:s B 
*I x1/x1/MN16:d B 
*I x1/x1/MN11:d B 
*I x1/x1/MN14:s B 
*I x1/x8/MN2:s B 
*I x1/x1/MN15:d B 
*I x1/x8/MN0:s B 
*I x1/x1/MN12:s B 
*I x1/x1/MN13:d B 
*I x1/x1/MN10:d B 
*I x1/x1/MN9:s B 
*I x1/x3/MN2:s B 
*I x1/x2/MN2:s B 
*I x1/x4/MN0:s B 
*I x1/x6/MN0:s B 
*I x1/x5/MN0:s B 
*I x1/x7/MN0:s B 
*I x2/x1/MN8:d B 
*I x2/x1/MN0:s B 
*I x2/x1/MN4:s B 
*I x2/x1/MN7:d B 
*I x2/x1/MN2:s B 
*I x2/x1/MN17:s B 
*I x2/x1/MN16:d B 
*I x2/x1/MN11:d B 
*I x2/x1/MN14:s B 
*I x2/x8/MN2:s B 
*I x2/x1/MN15:d B 
*I x2/x8/MN0:s B 
*I x2/x1/MN12:s B 
*I x2/x1/MN13:d B 
*I x2/x1/MN10:d B 
*I x2/x1/MN9:s B 
*I x2/x3/MN2:s B 
*I x2/x2/MN2:s B 
*I x2/x4/MN0:s B 
*I x2/x6/MN0:s B 
*I x2/x5/MN0:s B 
*I x2/x7/MN0:s B 
*I x3/x1/MN8:d B 
*I x3/x1/MN0:s B 
*I x3/x1/MN4:s B 
*I x3/x1/MN7:d B 
*I x3/x1/MN2:s B 
*I x3/x1/MN17:s B 
*I x3/x1/MN16:d B 
*I x3/x1/MN11:d B 
*I x3/x1/MN14:s B 
*I x3/x8/MN2:s B 
*I x3/x1/MN15:d B 
*I x3/x8/MN0:s B 
*I x3/x1/MN12:s B 
*I x3/x1/MN13:d B 
*I x3/x1/MN10:d B 
*I x3/x1/MN9:s B 
*I x3/x3/MN2:s B 
*I x3/x2/MN2:s B 
*I x3/x4/MN0:s B 
*I x3/x6/MN0:s B 
*I x3/x5/MN0:s B 
*I x3/x7/MN0:s B 
*I x4/x1/MN8:d B 
*I x4/x1/MN0:s B 
*I x4/x1/MN4:s B 
*I x4/x1/MN7:d B 
*I x4/x1/MN2:s B 
*I x4/x1/MN17:s B 
*I x4/x1/MN16:d B 
*I x4/x1/MN11:d B 
*I x4/x1/MN14:s B 
*I x4/x8/MN2:s B 
*I x4/x1/MN15:d B 
*I x4/x8/MN0:s B 
*I x4/x1/MN12:s B 
*I x4/x1/MN13:d B 
*I x4/x1/MN10:d B 
*I x4/x1/MN9:s B 
*I x4/x3/MN2:s B 
*I x4/x2/MN2:s B 
*I x4/x4/MN0:s B 
*I x4/x6/MN0:s B 
*I x4/x5/MN0:s B 
*I x4/x7/MN0:s B 
*I x5/x1/MN8:d B 
*I x5/x1/MN0:s B 
*I x5/x1/MN4:s B 
*I x5/x1/MN7:d B 
*I x5/x1/MN2:s B 
*I x5/x1/MN17:s B 
*I x5/x1/MN16:d B 
*I x5/x1/MN11:d B 
*I x5/x1/MN14:s B 
*I x5/x8/MN2:s B 
*I x5/x1/MN15:d B 
*I x5/x8/MN0:s B 
*I x5/x1/MN12:s B 
*I x5/x1/MN13:d B 
*I x5/x1/MN10:d B 
*I x5/x1/MN9:s B 
*I x5/x3/MN2:s B 
*I x5/x2/MN2:s B 
*I x5/x4/MN0:s B 
*I x5/x6/MN0:s B 
*I x5/x5/MN0:s B 
*I x5/x7/MN0:s B 
*I x1/x8/MP1:s B 
*I x2/x8/MP1:s B 
*I x3/x8/MP1:s B 
*I x4/x8/MP1:s B 
*I x5/x8/MP1:s B 

*CAP
0 GND:19 X1/NET7:1 2.56516e-05 // $x=0.185 $y=0.945 $x2=-1.482 $y2=2.62
1 GND:19 X1/NET7:6 1.25213e-05 // $x=0.185 $y=0.945 $x2=-1.404 $y2=3.515
2 GND:19 x1/x1/MN8:s 1.09469e-05 // $x=0.185 $y=0.945 $x2=-1.41 $y2=1.885
3 GND:419 X1/NET7:1 5.79787e-07 // $x=0.76 $y=0.867 $x2=-1.482 $y2=2.62
4 GND:419 x1/x1/MN8:s 2.84627e-05 // $x=0.76 $y=0.867 $x2=-1.41 $y2=1.885
5 x1/x1/MN8:d x1/x1/MN8:s 1.41527e-05 // $x=-0.97 $y=1.885 $x2=-1.41 $y2=1.885
6 GND:38 X1/NET4:1 1.77029e-05 // $x=7.08 $y=8.575 $x2=-1.482 $y2=2.62
7 GND:39 X1/NET4:1 4.30993e-07 // $x=24.92 $y=8.727 $x2=-1.482 $y2=2.62
8 GND:444 X1/NET4:1 6.29273e-07 // $x=11.145 $y=8.727 $x2=-1.482 $y2=2.62
9 GND:461 X1/NET4:1 5.80309e-06 // $x=7.475 $y=6.4 $x2=-1.482 $y2=2.62
10 GND:38 X1/NET4:2 1.30614e-05 // $x=7.08 $y=8.575 $x2=-1.482 $y2=2.988
11 GND:461 X1/NET4:2 6.12582e-06 // $x=7.475 $y=6.4 $x2=-1.482 $y2=2.988
12 GND:15 X1/NET4:10 2.83908e-05 // $x=0.245 $y=3.23 $x2=0 $y2=0
13 GND:19 X1/NET4:10 1.80471e-05 // $x=0.185 $y=0.945 $x2=0 $y2=0
14 GND:231 X1/NET4:10 2.76815e-06 // $x=1.72 $y=2.765 $x2=0 $y2=0
15 GND:330 X1/NET4:10 3.51126e-06 // $x=0.415 $y=2.73 $x2=0 $y2=0
16 GND:331 X1/NET4:10 3.86863e-05 // $x=0.45 $y=2.796 $x2=0 $y2=0
17 GND:419 X1/NET4:10 4.52915e-07 // $x=0.76 $y=0.867 $x2=0 $y2=0
18 GND:947 X1/NET4:10 1.61178e-05 // $x=-0.084 $y=2.81 $x2=0 $y2=0
19 GND:1200 X1/NET4:10 2.67506e-07 // $x=-0.085 $y=2.645 $x2=0 $y2=0
20 GND:1251 X1/NET4:10 4.10295e-06 // $x=-0.084 $y=2.81 $x2=0 $y2=0
21 x1/x1/MN8:d X1/NET4:10 4.03559e-06 // $x=-0.97 $y=1.885 $x2=0 $y2=0
22 GND:15 X1/NET4:14 1.66805e-05 // $x=0.245 $y=3.23 $x2=0 $y2=0
23 GND:17 X1/NET4:14 5.44583e-07 // $x=0.35 $y=3.245 $x2=0 $y2=0
24 GND:331 X1/NET4:14 1.34324e-05 // $x=0.45 $y=2.796 $x2=0 $y2=0
25 GND:947 X1/NET4:14 3.32093e-07 // $x=-0.084 $y=2.81 $x2=0 $y2=0
26 GND:951 X1/NET4:14 6.59426e-07 // $x=1.775 $y=2.755 $x2=0 $y2=0
27 GND:18 X1/NET4:24 8.90822e-06 // $x=9.315 $y=0.945 $x2=0 $y2=0
28 GND:38 X1/NET4:28 1.33559e-05 // $x=7.08 $y=8.575 $x2=0 $y2=0
29 GND:39 X1/NET4:28 8.48754e-06 // $x=24.92 $y=8.727 $x2=0 $y2=0
30 GND:444 X1/NET4:28 3.25882e-06 // $x=11.145 $y=8.727 $x2=0 $y2=0
31 GND:461 X1/NET4:28 5.84642e-06 // $x=7.475 $y=6.4 $x2=0 $y2=0
32 GND:18 X1/NET4:40 0.000759791 // $x=9.315 $y=0.945 $x2=0 $y2=0
33 GND:240 X1/NET4:40 0.000124966 // $x=10.26 $y=0.945 $x2=0 $y2=0
34 GND:243 X1/NET4:40 1.14491e-05 // $x=16.22 $y=0.945 $x2=0 $y2=0
35 GND:38 X1/NET4:43 9.41049e-06 // $x=7.08 $y=8.575 $x2=0 $y2=0
36 GND:19 X1/NET4:48 2.80562e-06 // $x=0.185 $y=0.945 $x2=0 $y2=0
37 GND:314 X1/NET4:48 8.55502e-07 // $x=0.45 $y=2.59 $x2=0 $y2=0
38 GND:330 X1/NET4:48 5.71757e-07 // $x=0.415 $y=2.73 $x2=0 $y2=0
39 x1/x1/MN8:d X1/NET4:48 3.40257e-06 // $x=-0.97 $y=1.885 $x2=0 $y2=0
40 GND:18 X1/NET4:54 7.7261e-05 // $x=9.315 $y=0.945 $x2=0 $y2=0
41 GND:19 X1/NET4:54 6.76758e-07 // $x=0.185 $y=0.945 $x2=0 $y2=0
42 GND:324 X1/NET4:54 9.99581e-06 // $x=0.44 $y=1.375 $x2=0 $y2=0
43 GND:331 X1/NET4:54 2.03467e-06 // $x=0.45 $y=2.796 $x2=0 $y2=0
44 GND:18 X1/NET4:57 0.000123924 // $x=9.315 $y=0.945 $x2=0 $y2=0
45 GND:18 X1/NET4:58 7.26125e-05 // $x=9.315 $y=0.945 $x2=0 $y2=0
46 GND:331 X1/NET4:60 1.45578e-05 // $x=0.45 $y=2.796 $x2=0 $y2=0
47 GND:15 X1/NET4:66 2.56992e-06 // $x=0.245 $y=3.23 $x2=0 $y2=0
48 GND:231 X1/NET4:66 1.1668e-06 // $x=1.72 $y=2.765 $x2=0 $y2=0
49 GND:331 X1/NET4:66 5.04493e-05 // $x=0.45 $y=2.796 $x2=0 $y2=0
50 GND:951 X1/NET4:66 2.24551e-06 // $x=1.775 $y=2.755 $x2=0 $y2=0
51 x1/x1/MP5:g X1/NET4:66 1.16785e-06 // $x=1.875 $y=3.635 $x2=0 $y2=0
52 GND:240 X1/NET4:71 4.4417e-05 // $x=10.26 $y=0.945 $x2=0 $y2=0
53 GND:243 X1/NET4:71 8.65801e-06 // $x=16.22 $y=0.945 $x2=0 $y2=0
54 GND:474 X1/NET4:71 3.86728e-06 // $x=11.145 $y=0.152 $x2=0 $y2=0
55 GND:974 X1/NET4:71 4.34486e-06 // $x=10.26 $y=0.867 $x2=0 $y2=0
56 GND:19 X1/NET4:73 3.26842e-05 // $x=0.185 $y=0.945 $x2=0 $y2=0
57 GND:324 X1/NET4:73 3.80656e-07 // $x=0.44 $y=1.375 $x2=0 $y2=0
58 GND:19 X1/NET4:74 3.56539e-05 // $x=0.185 $y=0.945 $x2=0 $y2=0
59 GND:314 X1/NET4:74 2.00236e-05 // $x=0.45 $y=2.59 $x2=0 $y2=0
60 GND:324 X1/NET4:74 9.65736e-06 // $x=0.44 $y=1.375 $x2=0 $y2=0
61 GND:330 X1/NET4:74 6.40156e-05 // $x=0.415 $y=2.73 $x2=0 $y2=0
62 GND:331 X1/NET4:74 4.69063e-07 // $x=0.45 $y=2.796 $x2=0 $y2=0
63 x1/x1/MN8:d X1/NET4:74 1.12968e-06 // $x=-0.97 $y=1.885 $x2=0 $y2=0
64 GND:18 X1/NET4:75 3.94688e-05 // $x=9.315 $y=0.945 $x2=0 $y2=0
65 GND:19 X1/NET4:75 4.82075e-05 // $x=0.185 $y=0.945 $x2=0 $y2=0
66 GND:324 X1/NET4:75 2.37387e-05 // $x=0.44 $y=1.375 $x2=0 $y2=0
67 GND:330 X1/NET4:75 3.21732e-05 // $x=0.415 $y=2.73 $x2=0 $y2=0
68 GND:331 X1/NET4:75 8.67121e-06 // $x=0.45 $y=2.796 $x2=0 $y2=0
69 GND:18 X1/NET4:77 2.04196e-05 // $x=9.315 $y=0.945 $x2=0 $y2=0
70 GND:324 X1/NET4:77 8.65045e-07 // $x=0.44 $y=1.375 $x2=0 $y2=0
71 GND:331 X1/NET4:77 1.18778e-06 // $x=0.45 $y=2.796 $x2=0 $y2=0
72 GND:18 X1/NET4:78 2.32798e-05 // $x=9.315 $y=0.945 $x2=0 $y2=0
73 GND:314 X1/NET4:78 3.56244e-05 // $x=0.45 $y=2.59 $x2=0 $y2=0
74 GND:324 X1/NET4:78 1.0017e-05 // $x=0.44 $y=1.375 $x2=0 $y2=0
75 GND:330 X1/NET4:78 4.13587e-05 // $x=0.415 $y=2.73 $x2=0 $y2=0
76 GND:331 X1/NET4:78 6.29769e-05 // $x=0.45 $y=2.796 $x2=0 $y2=0
77 GND:951 X1/NET4:78 4.39181e-07 // $x=1.775 $y=2.755 $x2=0 $y2=0
78 x1/x1/MN4:s X1/NET4:78 3.43246e-06 // $x=0.55 $y=1.885 $x2=0 $y2=0
79 x1/x8/MP1:s X1/NET4:86 1.07518e-05 // $x=7.295 $y=5.015 $x2=0 $y2=0
80 GND:240 X1/NET4:88 1.30133e-05 // $x=10.26 $y=0.945 $x2=0 $y2=0
81 x1/x1/MN9:s X1/NET4:88 3.33447e-06 // $x=9.27 $y=1.885 $x2=0 $y2=0
82 GND:19 X1/NET4:93 8.75906e-05 // $x=0.185 $y=0.945 $x2=0 $y2=0
83 GND:324 X1/NET4:93 1.49645e-06 // $x=0.44 $y=1.375 $x2=0 $y2=0
84 GND:18 X1/NET4:99 3.03443e-05 // $x=9.315 $y=0.945 $x2=0 $y2=0
85 GND:331 X1/NET4:103 1.04481e-05 // $x=0.45 $y=2.796 $x2=0 $y2=0
86 GND:18 X1/NET4:104 3.87805e-05 // $x=9.315 $y=0.945 $x2=0 $y2=0
87 x1/x1/MN7:d X1/NET4:104 7.83245e-07 // $x=2.43 $y=1.885 $x2=0 $y2=0
88 GND:37 X1/NET4:108 9.10402e-06 // $x=7.08 $y=6.485 $x2=0 $y2=0
89 GND:38 X1/NET4:108 1.00703e-05 // $x=7.08 $y=8.575 $x2=0 $y2=0
90 GND:977 X1/NET4:108 6.0292e-06 // $x=7.447 $y=6.245 $x2=0 $y2=0
91 GND:38 X1/NET4:119 4.33781e-07 // $x=7.08 $y=8.575 $x2=0 $y2=0
92 GND:39 X1/NET4:119 2.15467e-06 // $x=24.92 $y=8.727 $x2=0 $y2=0
93 GND:444 X1/NET4:119 1.39846e-05 // $x=11.145 $y=8.727 $x2=0 $y2=0
94 GND:459 X1/NET4:119 1.53126e-05 // $x=7.475 $y=7.855 $x2=0 $y2=0
95 GND:461 X1/NET4:119 1.7471e-05 // $x=7.475 $y=6.4 $x2=0 $y2=0
96 GND:19 X1/NET4:125 2.73579e-06 // $x=0.185 $y=0.945 $x2=0 $y2=0
97 GND:419 X1/NET4:125 2.43336e-06 // $x=0.76 $y=0.867 $x2=0 $y2=0
98 GND:947 X1/NET4:125 1.36353e-05 // $x=-0.084 $y=2.81 $x2=0 $y2=0
99 GND:1200 X1/NET4:125 3.08498e-07 // $x=-0.085 $y=2.645 $x2=0 $y2=0
100 GND:1251 X1/NET4:125 6.56665e-06 // $x=-0.084 $y=2.81 $x2=0 $y2=0
101 GND:331 X1/NET4:129 2.60296e-06 // $x=0.45 $y=2.796 $x2=0 $y2=0
102 GND:418 X1/NET4:129 1.77963e-06 // $x=2.51 $y=0.867 $x2=0 $y2=0
103 GND:419 X1/NET4:129 6.43799e-07 // $x=0.76 $y=0.867 $x2=0 $y2=0
104 GND:947 X1/NET4:129 9.44517e-06 // $x=-0.084 $y=2.81 $x2=0 $y2=0
105 GND:1200 X1/NET4:129 2.77579e-07 // $x=-0.085 $y=2.645 $x2=0 $y2=0
106 GND:1251 X1/NET4:129 3.42054e-06 // $x=-0.084 $y=2.81 $x2=0 $y2=0
107 x1/x1/MN4:s X1/NET4:129 8.34266e-06 // $x=0.55 $y=1.885 $x2=0 $y2=0
108 GND:18 X1/NET4:133 1.41806e-06 // $x=9.315 $y=0.945 $x2=0 $y2=0
109 GND:231 X1/NET4:133 4.60533e-06 // $x=1.72 $y=2.765 $x2=0 $y2=0
110 GND:331 X1/NET4:133 6.7231e-06 // $x=0.45 $y=2.796 $x2=0 $y2=0
111 GND:418 X1/NET4:133 3.47996e-06 // $x=2.51 $y=0.867 $x2=0 $y2=0
112 GND:947 X1/NET4:133 9.68329e-07 // $x=-0.084 $y=2.81 $x2=0 $y2=0
113 GND:951 X1/NET4:133 2.58955e-05 // $x=1.775 $y=2.755 $x2=0 $y2=0
114 GND:1205 X1/NET4:133 3.64521e-07 // $x=1.875 $y=2.645 $x2=0 $y2=0
115 GND:1253 X1/NET4:133 1.93927e-06 // $x=1.875 $y=2.81 $x2=0 $y2=0
116 GND:18 X1/NET4:137 1.93332e-06 // $x=9.315 $y=0.945 $x2=0 $y2=0
117 GND:418 X1/NET4:137 5.03792e-07 // $x=2.51 $y=0.867 $x2=0 $y2=0
118 GND:951 X1/NET4:137 1.05476e-05 // $x=1.775 $y=2.755 $x2=0 $y2=0
119 GND:974 X1/NET4:137 3.59309e-07 // $x=10.26 $y=0.867 $x2=0 $y2=0
120 GND:1253 X1/NET4:137 1.93927e-06 // $x=1.875 $y=2.81 $x2=0 $y2=0
121 x1/x1/MN7:d X1/NET4:137 9.14355e-06 // $x=2.43 $y=1.885 $x2=0 $y2=0
122 GND:951 X1/NET4:141 4.92814e-07 // $x=1.775 $y=2.755 $x2=0 $y2=0
123 GND:974 X1/NET4:145 2.14676e-06 // $x=10.26 $y=0.867 $x2=0 $y2=0
124 x1/x1/MP1:g x1/x1/MP0:g 5.7286e-05 // $x=-0.085 $y=3.635 $x2=0 $y2=0
125 GND:15 x1/x1/MP4:g 6.34925e-07 // $x=0.245 $y=3.23 $x2=0 $y2=0
126 GND:331 x1/x1/MP4:g 8.77818e-07 // $x=0.45 $y=2.796 $x2=0 $y2=0
127 GND:947 x1/x1/MP4:g 3.02132e-06 // $x=-0.084 $y=2.81 $x2=0 $y2=0
128 x1/x1/MP1:g x1/x1/MP4:g 1.89747e-05 // $x=-0.085 $y=3.635 $x2=0 $y2=0
129 x1/x1/MP5:g x1/x1/MP4:g 3.3485e-06 // $x=1.875 $y=3.635 $x2=0 $y2=0
130 GND:951 x1/x1/MP7:g 2.42422e-07 // $x=1.775 $y=2.755 $x2=0 $y2=0
131 x1/x1/MP5:g x1/x1/MP7:g 5.74841e-05 // $x=1.875 $y=3.635 $x2=0 $y2=0
132 x1/x1/MP5:g x1/x1/MP6:g 5.90703e-05 // $x=1.875 $y=3.635 $x2=0 $y2=0
133 GND:19 X1/NET4:160 4.90953e-06 // $x=0.185 $y=0.945 $x2=0 $y2=0
134 GND:419 X1/NET4:160 6.63588e-06 // $x=0.76 $y=0.867 $x2=0 $y2=0
135 GND:1200 X1/NET4:160 4.00986e-05 // $x=-0.085 $y=2.645 $x2=0 $y2=0
136 x1/x1/MN8:d X1/NET4:160 5.84914e-06 // $x=-0.97 $y=1.885 $x2=0 $y2=0
137 GND:18 X1/NET4:165 4.86809e-06 // $x=9.315 $y=0.945 $x2=0 $y2=0
138 GND:314 X1/NET4:165 2.16304e-06 // $x=0.45 $y=2.59 $x2=0 $y2=0
139 GND:331 X1/NET4:165 3.24766e-06 // $x=0.45 $y=2.796 $x2=0 $y2=0
140 GND:418 X1/NET4:165 6.65717e-06 // $x=2.51 $y=0.867 $x2=0 $y2=0
141 GND:1200 X1/NET4:165 1.20924e-05 // $x=-0.085 $y=2.645 $x2=0 $y2=0
142 GND:1205 X1/NET4:165 2.14388e-06 // $x=1.875 $y=2.645 $x2=0 $y2=0
143 x1/x1/MN4:s X1/NET4:165 1.12862e-05 // $x=0.55 $y=1.885 $x2=0 $y2=0
144 GND:18 X1/NET4:170 3.95519e-06 // $x=9.315 $y=0.945 $x2=0 $y2=0
145 GND:418 X1/NET4:170 6.55962e-06 // $x=2.51 $y=0.867 $x2=0 $y2=0
146 GND:1205 X1/NET4:170 3.89253e-05 // $x=1.875 $y=2.645 $x2=0 $y2=0
147 GND:18 X1/NET4:175 5.2612e-06 // $x=9.315 $y=0.945 $x2=0 $y2=0
148 GND:418 X1/NET4:175 6.67751e-06 // $x=2.51 $y=0.867 $x2=0 $y2=0
149 GND:1205 X1/NET4:175 4.07251e-05 // $x=1.875 $y=2.645 $x2=0 $y2=0
150 x1/x1/MN7:d X1/NET4:175 1.17647e-05 // $x=2.43 $y=1.885 $x2=0 $y2=0
151 GND:18 X1/NET4:180 4.6556e-06 // $x=9.315 $y=0.945 $x2=0 $y2=0
152 GND:974 X1/NET4:180 4.85597e-06 // $x=10.26 $y=0.867 $x2=0 $y2=0
153 x1/x1/MN7:d X1/NET4:180 2.73374e-06 // $x=2.43 $y=1.885 $x2=0 $y2=0
154 GND:18 X1/NET4:185 3.87479e-06 // $x=9.315 $y=0.945 $x2=0 $y2=0
155 GND:974 X1/NET4:185 6.66472e-06 // $x=10.26 $y=0.867 $x2=0 $y2=0
156 x1/x1/MN2:s X1/NET4:185 8.49098e-06 // $x=3.91 $y=1.885 $x2=0 $y2=0
157 GND:19 X1/NET4:191 4.57056e-07 // $x=0.185 $y=0.945 $x2=0 $y2=0
158 GND:419 X1/NET4:191 9.74713e-07 // $x=0.76 $y=0.867 $x2=0 $y2=0
159 GND:947 X1/NET4:191 1.83322e-06 // $x=-0.084 $y=2.81 $x2=0 $y2=0
160 GND:1251 X1/NET4:191 4.31894e-05 // $x=-0.084 $y=2.81 $x2=0 $y2=0
161 GND:331 X1/NET4:193 3.09133e-06 // $x=0.45 $y=2.796 $x2=0 $y2=0
162 GND:418 X1/NET4:193 1.14932e-06 // $x=2.51 $y=0.867 $x2=0 $y2=0
163 GND:947 X1/NET4:193 1.54602e-06 // $x=-0.084 $y=2.81 $x2=0 $y2=0
164 GND:1251 X1/NET4:193 6.58583e-06 // $x=-0.084 $y=2.81 $x2=0 $y2=0
165 GND:231 X1/NET4:195 3.46925e-06 // $x=1.72 $y=2.765 $x2=0 $y2=0
166 GND:331 X1/NET4:195 1.11454e-06 // $x=0.45 $y=2.796 $x2=0 $y2=0
167 GND:418 X1/NET4:195 8.19315e-07 // $x=2.51 $y=0.867 $x2=0 $y2=0
168 GND:951 X1/NET4:195 6.66247e-06 // $x=1.775 $y=2.755 $x2=0 $y2=0
169 GND:1253 X1/NET4:195 4.24258e-05 // $x=1.875 $y=2.81 $x2=0 $y2=0
170 GND:18 X1/NET4:197 4.54061e-07 // $x=9.315 $y=0.945 $x2=0 $y2=0
171 GND:418 X1/NET4:197 1.04085e-06 // $x=2.51 $y=0.867 $x2=0 $y2=0
172 GND:951 X1/NET4:197 6.5299e-06 // $x=1.775 $y=2.755 $x2=0 $y2=0
173 GND:1253 X1/NET4:197 5.07388e-05 // $x=1.875 $y=2.81 $x2=0 $y2=0
174 GND:18 X1/NET4:201 2.86413e-07 // $x=9.315 $y=0.945 $x2=0 $y2=0
175 GND:974 X1/NET4:201 1.38935e-06 // $x=10.26 $y=0.867 $x2=0 $y2=0
176 GND:37 x1/x8/MP1:d 7.00818e-06 // $x=7.08 $y=6.485 $x2=0 $y2=0
177 GND:38 x1/x8/MP1:d 4.33781e-07 // $x=7.08 $y=8.575 $x2=0 $y2=0
178 GND:461 x1/x8/MP1:d 4.47144e-06 // $x=7.475 $y=6.4 $x2=0 $y2=0
179 GND:977 x1/x8/MP1:d 7.05693e-05 // $x=7.447 $y=6.245 $x2=0 $y2=0
180 x1/x8/MP1:s x1/x8/MP1:d 5.35351e-05 // $x=7.295 $y=5.015 $x2=0 $y2=0
181 GND:18 X1/NET8:5 1.6958e-05 // $x=9.315 $y=0.945 $x2=-1.415 $y2=3.515
182 GND:974 X1/NET8:5 6.02824e-07 // $x=10.26 $y=0.867 $x2=-1.415 $y2=3.515
183 GND:18 x1/x1/MN17:d 7.43555e-06 // $x=9.315 $y=0.945 $x2=0 $y2=0
184 GND:974 x1/x1/MN17:d 2.97567e-05 // $x=10.26 $y=0.867 $x2=0 $y2=0
185 x1/x1/MN2:s x1/x1/MN17:d 1.63542e-05 // $x=3.91 $y=1.885 $x2=0 $y2=0
186 x1/x1/MN16:d x1/x1/MN17:d 1.12307e-05 // $x=4.87 $y=1.885 $x2=0 $y2=0
187 GND:18 x1/x1/MP16:s 3.66346e-07 // $x=9.315 $y=0.945 $x2=0 $y2=0
188 x1/x1/MN16:d x1/x1/MP16:s 2.90074e-06 // $x=4.87 $y=1.885 $x2=0 $y2=0
189 GND:243 X1/NET1:3 1.75846e-05 // $x=16.22 $y=0.945 $x2=-1.44 $y2=2.355
190 x1/x3/MN2:s X1/NET1:3 1.1132e-06 // $x=11.105 $y=0.575 $x2=-1.44 $y2=2.355
191 x1/x1/MN9:s X1/NET1:4 3.08184e-06 // $x=9.27 $y=1.885 $x2=-1.434 $y2=2.355
192 GND:18 X1/NET1:8 2.45275e-05 // $x=9.315 $y=0.945 $x2=-1.439 $y2=3.67
193 GND:974 X1/NET1:8 8.80478e-07 // $x=10.26 $y=0.867 $x2=-1.439 $y2=3.67
194 x1/x1/MN11:d X1/NET1:8 9.14281e-07 // $x=5.87 $y=1.885 $x2=-1.439 $y2=3.67
195 GND:37 X1/NET1:19 6.20714e-07 // $x=7.08 $y=6.485 $x2=-1.362 $y2=2.355
196 GND:18 X1/NET1:29 1.86514e-05 // $x=9.315 $y=0.945 $x2=0 $y2=0
197 GND:18 X1/NET1:31 1.08955e-05 // $x=9.315 $y=0.945 $x2=0 $y2=0
198 GND:316 X1/NET1:57 2.06714e-07 // $x=18.375 $y=2.59 $x2=0 $y2=0
199 GND:39 X1/NET1:69 2.86039e-06 // $x=24.92 $y=8.727 $x2=0 $y2=0
200 GND:488 X1/NET1:69 1.21387e-05 // $x=13.89 $y=8.727 $x2=0 $y2=0
201 GND:502 X1/NET1:69 1.28014e-06 // $x=14.88 $y=8.727 $x2=0 $y2=0
202 x1/x2/MN2:s X1/NET1:69 1.87278e-06 // $x=11.105 $y=7.755 $x2=0 $y2=0
203 GND:18 x1/x1/MN14:d 6.35863e-06 // $x=9.315 $y=0.945 $x2=0 $y2=0
204 GND:974 x1/x1/MN14:d 3.24283e-05 // $x=10.26 $y=0.867 $x2=0 $y2=0
205 x1/x1/MN11:d x1/x1/MN14:d 7.83803e-06 // $x=5.87 $y=1.885 $x2=0 $y2=0
206 x1/x1/MN15:d x1/x1/MN14:d 7.82557e-06 // $x=6.83 $y=1.885 $x2=0 $y2=0
207 x1/x1/MN12:s x1/x1/MN14:d 3.53e-07 // $x=7.39 $y=1.885 $x2=0 $y2=0
208 GND:243 x1/x3/MN1:s 2.18283e-06 // $x=16.22 $y=0.945 $x2=0 $y2=0
209 GND:484 x1/x3/MN1:s 1.1298e-05 // $x=13.89 $y=0.152 $x2=0 $y2=0
210 GND:500 x1/x3/MN1:s 1.33082e-06 // $x=14.88 $y=0.152 $x2=0 $y2=0
211 x1/x4/MN0:s x1/x3/MN1:s 8.67204e-06 // $x=13.85 $y=0.575 $x2=0 $y2=0
212 GND:18 X1/X1/2:4 3.74904e-06 // $x=9.315 $y=0.945 $x2=-1.434 $y2=2.355
213 GND:18 X1/X1/2:6 3.6621e-05 // $x=9.315 $y=0.945 $x2=-1.404 $y2=3.515
214 x1/x1/MN2:s X1/X1/2:6 2.52683e-06 // $x=3.91 $y=1.885 $x2=-1.404 $y2=3.515
215 GND:18 X1/X1/2:10 1.05748e-06 // $x=9.315 $y=0.945 $x2=0 $y2=0
216 GND:18 X1/X1/2:14 1.76526e-06 // $x=9.315 $y=0.945 $x2=0 $y2=0
217 GND:314 X1/X1/2:20 3.30842e-07 // $x=0.45 $y=2.59 $x2=-1.434 $y2=2.355
218 GND:18 X1/X1/2:24 3.5314e-07 // $x=9.315 $y=0.945 $x2=0 $y2=0
219 x1/x1/MN2:s X1/X1/2:30 9.51574e-07 // $x=3.91 $y=1.885 $x2=0 $y2=0
220 GND:18 X1/X1/2:31 7.88399e-05 // $x=9.315 $y=0.945 $x2=0 $y2=0
221 x1/x1/MN16:d X1/X1/2:31 3.90188e-07 // $x=4.87 $y=1.885 $x2=0 $y2=0
222 x1/x1/MN11:d X1/X1/2:31 3.22629e-06 // $x=5.87 $y=1.885 $x2=0 $y2=0
223 x1/x1/MN15:d X1/X1/2:31 4.05643e-06 // $x=6.83 $y=1.885 $x2=0 $y2=0
224 x1/x1/MN12:s X1/X1/2:31 3.27654e-06 // $x=7.39 $y=1.885 $x2=0 $y2=0
225 GND:18 X1/X1/2:41 2.71996e-06 // $x=9.315 $y=0.945 $x2=0 $y2=0
226 x1/x1/MN2:s X1/X1/2:41 2.76676e-07 // $x=3.91 $y=1.885 $x2=0 $y2=0
227 x1/x1/MN16:d X1/X1/2:41 9.3184e-07 // $x=4.87 $y=1.885 $x2=0 $y2=0
228 GND:18 X1/X1/2:49 8.66051e-07 // $x=9.315 $y=0.945 $x2=0 $y2=0
229 x1/x1/MN2:s X1/X1/2:49 3.33793e-06 // $x=3.91 $y=1.885 $x2=0 $y2=0
230 GND:18 X1/X1/2:60 1.21125e-06 // $x=9.315 $y=0.945 $x2=0 $y2=0
231 GND:974 X1/X1/2:60 9.73821e-07 // $x=10.26 $y=0.867 $x2=0 $y2=0
232 GND:18 X1/X1/2:63 5.04629e-07 // $x=9.315 $y=0.945 $x2=0 $y2=0
233 GND:974 X1/X1/2:63 4.13611e-07 // $x=10.26 $y=0.867 $x2=0 $y2=0
234 GND:18 X1/X1/2:67 3.59279e-06 // $x=9.315 $y=0.945 $x2=0 $y2=0
235 GND:974 X1/X1/2:67 2.33275e-06 // $x=10.26 $y=0.867 $x2=0 $y2=0
236 GND:18 X1/X1/2:76 3.48495e-06 // $x=9.315 $y=0.945 $x2=0 $y2=0
237 GND:974 X1/X1/2:76 6.72178e-06 // $x=10.26 $y=0.867 $x2=0 $y2=0
238 x1/x1/MN16:d X1/X1/2:76 1.11202e-05 // $x=4.87 $y=1.885 $x2=0 $y2=0
239 GND:18 X1/X1/2:81 4.71237e-06 // $x=9.315 $y=0.945 $x2=0 $y2=0
240 GND:974 X1/X1/2:81 6.10095e-06 // $x=10.26 $y=0.867 $x2=0 $y2=0
241 x1/x1/MN12:s X1/X1/2:81 1.01103e-05 // $x=7.39 $y=1.885 $x2=0 $y2=0
242 GND:18 X1/X1/2:86 6.57323e-06 // $x=9.315 $y=0.945 $x2=0 $y2=0
243 GND:974 X1/X1/2:86 6.67363e-06 // $x=10.26 $y=0.867 $x2=0 $y2=0
244 x1/x1/MN9:s X1/X1/2:86 1.17796e-05 // $x=9.27 $y=1.885 $x2=0 $y2=0
245 GND:18 X1/X1/2:92 5.69308e-07 // $x=9.315 $y=0.945 $x2=0 $y2=0
246 GND:974 X1/X1/2:92 6.2399e-07 // $x=10.26 $y=0.867 $x2=0 $y2=0
247 GND:974 X1/X1/2:94 7.04924e-07 // $x=10.26 $y=0.867 $x2=0 $y2=0
248 GND:18 X1/X1/2:96 5.63269e-07 // $x=9.315 $y=0.945 $x2=0 $y2=0
249 GND:974 X1/X1/2:96 9.08958e-07 // $x=10.26 $y=0.867 $x2=0 $y2=0
250 GND:18 x1/x1/MN3:d 1.68447e-05 // $x=9.315 $y=0.945 $x2=0 $y2=0
251 GND:974 x1/x1/MN3:d 5.03988e-05 // $x=10.26 $y=0.867 $x2=0 $y2=0
252 x1/x1/MN7:d x1/x1/MN3:d 1.51799e-05 // $x=2.43 $y=1.885 $x2=0 $y2=0
253 x1/x1/MN2:s x1/x1/MN3:d 6.14042e-06 // $x=3.91 $y=1.885 $x2=0 $y2=0
254 GND:18 X1/NET9:4 6.2938e-05 // $x=9.315 $y=0.945 $x2=-1.434 $y2=2.355
255 GND:974 X1/NET9:4 1.48887e-06 // $x=10.26 $y=0.867 $x2=-1.434 $y2=2.355
256 x1/x1/MN13:d X1/NET9:4 3.09477e-06 // $x=8.31 $y=1.885 $x2=-1.434 $y2=2.355
257 x1/x1/MN9:s X1/NET9:4 6.12204e-06 // $x=9.27 $y=1.885 $x2=-1.434 $y2=2.355
258 GND:18 x1/x1/MN10:s 6.11418e-06 // $x=9.315 $y=0.945 $x2=-1.284 $y2=3.605
259 GND:974 x1/x1/MN10:s 1.96271e-05 // $x=10.26 $y=0.867 $x2=-1.284 $y2=3.605
260 x1/x1/MN13:d x1/x1/MN10:s 8.30482e-06 // $x=8.31 $y=1.885 $x2=-1.284 $y2=3.605
261 x1/x1/MN9:s x1/x1/MN10:s 1.05605e-05 // $x=9.27 $y=1.885 $x2=-1.284 $y2=3.605
262 GND:62 X2/NET7:1 2.48154e-05 // $x=18.11 $y=0.945 $x2=-1.482 $y2=2.62
263 GND:525 X2/NET7:1 5.79787e-07 // $x=18.685 $y=0.867 $x2=-1.482 $y2=2.62
264 GND:62 X2/NET7:6 1.25213e-05 // $x=18.11 $y=0.945 $x2=-1.404 $y2=3.515
265 GND:62 x2/x1/MN8:s 1.01689e-05 // $x=18.11 $y=0.945 $x2=-1.41 $y2=1.885
266 GND:525 x2/x1/MN8:s 2.78736e-05 // $x=18.685 $y=0.867 $x2=-1.41 $y2=1.885
267 x2/x1/MN8:d x2/x1/MN8:s 1.41527e-05 // $x=16.955 $y=1.885 $x2=-1.41 $y2=1.885
268 GND:80 X2/NET4:1 1.77029e-05 // $x=25.005 $y=8.575 $x2=-1.482 $y2=2.62
269 GND:81 X2/NET4:1 4.30993e-07 // $x=42.845 $y=8.727 $x2=-1.482 $y2=2.62
270 GND:550 X2/NET4:1 6.29273e-07 // $x=29.07 $y=8.727 $x2=-1.482 $y2=2.62
271 GND:567 X2/NET4:1 5.80309e-06 // $x=25.4 $y=6.4 $x2=-1.482 $y2=2.62
272 GND:80 X2/NET4:2 1.30614e-05 // $x=25.005 $y=8.575 $x2=-1.482 $y2=2.988
273 GND:567 X2/NET4:2 6.12582e-06 // $x=25.4 $y=6.4 $x2=-1.482 $y2=2.988
274 GND:58 X2/NET4:10 2.72396e-05 // $x=18.17 $y=3.23 $x2=0 $y2=0
275 GND:62 X2/NET4:10 1.80456e-05 // $x=18.11 $y=0.945 $x2=0 $y2=0
276 GND:249 X2/NET4:10 2.76815e-06 // $x=19.645 $y=2.765 $x2=0 $y2=0
277 GND:341 X2/NET4:10 4.81193e-06 // $x=18.34 $y=2.73 $x2=0 $y2=0
278 GND:342 X2/NET4:10 3.75458e-05 // $x=18.375 $y=2.796 $x2=0 $y2=0
279 GND:525 X2/NET4:10 4.52915e-07 // $x=18.685 $y=0.867 $x2=0 $y2=0
280 GND:995 X2/NET4:10 1.7144e-05 // $x=17.84 $y=2.81 $x2=0 $y2=0
281 GND:1210 X2/NET4:10 4.01939e-07 // $x=17.84 $y=2.645 $x2=0 $y2=0
282 GND:1255 X2/NET4:10 9.53967e-06 // $x=17.84 $y=2.81 $x2=0 $y2=0
283 x2/x1/MN8:d X2/NET4:10 4.03559e-06 // $x=16.955 $y=1.885 $x2=0 $y2=0
284 GND:58 X2/NET4:14 1.66805e-05 // $x=18.17 $y=3.23 $x2=0 $y2=0
285 GND:60 X2/NET4:14 5.44583e-07 // $x=18.275 $y=3.245 $x2=0 $y2=0
286 GND:342 X2/NET4:14 1.26442e-05 // $x=18.375 $y=2.796 $x2=0 $y2=0
287 GND:995 X2/NET4:14 3.32093e-07 // $x=17.84 $y=2.81 $x2=0 $y2=0
288 GND:999 X2/NET4:14 6.59408e-07 // $x=19.7 $y=2.755 $x2=0 $y2=0
289 GND:61 X2/NET4:24 8.81118e-06 // $x=27.24 $y=0.945 $x2=0 $y2=0
290 GND:1022 X2/NET4:24 2.59641e-07 // $x=28.185 $y=0.867 $x2=0 $y2=0
291 GND:80 X2/NET4:28 1.33559e-05 // $x=25.005 $y=8.575 $x2=0 $y2=0
292 GND:81 X2/NET4:28 8.48754e-06 // $x=42.845 $y=8.727 $x2=0 $y2=0
293 GND:550 X2/NET4:28 3.25882e-06 // $x=29.07 $y=8.727 $x2=0 $y2=0
294 GND:567 X2/NET4:28 5.84642e-06 // $x=25.4 $y=6.4 $x2=0 $y2=0
295 GND:61 X2/NET4:40 0.000759791 // $x=27.24 $y=0.945 $x2=0 $y2=0
296 GND:258 X2/NET4:40 0.000124966 // $x=28.185 $y=0.945 $x2=0 $y2=0
297 GND:261 X2/NET4:40 1.14491e-05 // $x=34.145 $y=0.945 $x2=0 $y2=0
298 GND:80 X2/NET4:43 9.41049e-06 // $x=25.005 $y=8.575 $x2=0 $y2=0
299 GND:62 X2/NET4:48 2.80562e-06 // $x=18.11 $y=0.945 $x2=0 $y2=0
300 GND:316 X2/NET4:48 8.55502e-07 // $x=18.375 $y=2.59 $x2=0 $y2=0
301 GND:341 X2/NET4:48 5.71757e-07 // $x=18.34 $y=2.73 $x2=0 $y2=0
302 x2/x1/MN8:d X2/NET4:48 3.40257e-06 // $x=16.955 $y=1.885 $x2=0 $y2=0
303 GND:61 X2/NET4:54 7.7261e-05 // $x=27.24 $y=0.945 $x2=0 $y2=0
304 GND:335 X2/NET4:54 9.99581e-06 // $x=18.365 $y=1.375 $x2=0 $y2=0
305 GND:342 X2/NET4:54 2.03465e-06 // $x=18.375 $y=2.796 $x2=0 $y2=0
306 GND:61 X2/NET4:57 0.000123924 // $x=27.24 $y=0.945 $x2=0 $y2=0
307 GND:61 X2/NET4:58 7.24683e-05 // $x=27.24 $y=0.945 $x2=0 $y2=0
308 GND:342 X2/NET4:60 1.43504e-05 // $x=18.375 $y=2.796 $x2=0 $y2=0
309 GND:58 X2/NET4:66 2.56992e-06 // $x=18.17 $y=3.23 $x2=0 $y2=0
310 GND:249 X2/NET4:66 1.8319e-06 // $x=19.645 $y=2.765 $x2=0 $y2=0
311 GND:342 X2/NET4:66 5.44022e-05 // $x=18.375 $y=2.796 $x2=0 $y2=0
312 GND:999 X2/NET4:66 2.10812e-06 // $x=19.7 $y=2.755 $x2=0 $y2=0
313 x2/x1/MP5:g X2/NET4:66 7.24702e-07 // $x=19.8 $y=3.635 $x2=0 $y2=0
314 GND:258 X2/NET4:71 4.4417e-05 // $x=28.185 $y=0.945 $x2=0 $y2=0
315 GND:261 X2/NET4:71 8.65801e-06 // $x=34.145 $y=0.945 $x2=0 $y2=0
316 GND:580 X2/NET4:71 3.86728e-06 // $x=29.07 $y=0.152 $x2=0 $y2=0
317 GND:1022 X2/NET4:71 4.34486e-06 // $x=28.185 $y=0.867 $x2=0 $y2=0
318 GND:62 X2/NET4:73 2.7864e-05 // $x=18.11 $y=0.945 $x2=0 $y2=0
319 GND:335 X2/NET4:73 3.80656e-07 // $x=18.365 $y=1.375 $x2=0 $y2=0
320 GND:62 X2/NET4:74 3.75449e-05 // $x=18.11 $y=0.945 $x2=0 $y2=0
321 GND:316 X2/NET4:74 1.94459e-05 // $x=18.375 $y=2.59 $x2=0 $y2=0
322 GND:335 X2/NET4:74 9.65736e-06 // $x=18.365 $y=1.375 $x2=0 $y2=0