*SPEF "2.0"
*DESIGN "SKY130_OSU_RING_OSCILLATOR_MPR2AA_8_B0R2"
*DATE "Fri Nov  3 09:47:08 2023"
*VENDOR "Mentor Graphics Corp."
*PROGRAM "Calibre xRC"
*VERSION "v2023.2_27.15"
*DESIGN_FLOW "extraction"
*DIVIDER /
*DELIMITER :
*BUS_DELIMITER []
*T_UNIT 1 NS
*C_UNIT 1 PF
*R_UNIT 1 OHM
*L_UNIT 1 HENRY



// CIRCUIT TEMPERATURE 30C
// NOMINAL TEMPERATURE 30C

*PORTS 
 X5_Y1 B
 X4_Y1 B
 X3_Y1 B
 X2_Y1 B
 X1_Y1 B
 VDD B
 START B
 S5 B
 S4 B
 S3 B
 S2 B
 S1 B
 GND B

*D_NET X1/NET1 0.00452399
*CONN
*I x1/x1/MN13:d B 
*I x1/x1/MN14:d B 
*I x1/x2/MN0:s B 
*I x1/x3/MN1:s B 
*I x1/x1/MP14:d B 
*I x1/x2/MP1:s B 
*I x1/x3/MP0:s B 

*CAP
0 X1/NET1:1 X1/NET8:4 1.44172e-05 // $x=0.54 $y=3.01 $x2=2.04 $y2=2.215
1 X1/NET1:28 X1/NET8:4 2.36197e-05 // $x=0.575 $y=2.958 $x2=2.04 $y2=2.215
2 X1/NET1:29 X1/NET8:4 3.25656e-05 // $x=10.455 $y=1.415 $x2=2.04 $y2=2.215
3 X1/NET1:38 X1/NET8:4 3.44481e-06 // $x=0.58 $y=3.1 $x2=2.04 $y2=2.215
4 x1/x1/MN13:d X1/NET8:4 3.7469e-06 // $x=0.985 $y=1.735 $x2=2.04 $y2=2.215
5 X1/NET1:1 x1/x1/MN12:d 2.63403e-06 // $x=0.54 $y=3.01 $x2=1.945 $y2=1.735
6 x1/x1/MN13:d x1/x1/MN12:d 2.49429e-06 // $x=0.985 $y=1.735 $x2=1.945 $y2=1.735
7 X1/NET1:28 X1/NET9:4 4.54131e-07 // $x=0.575 $y=2.958 $x2=2.04 $y2=2.215
8 X1/NET1:38 X1/NET9:4 1.81845e-05 // $x=0.58 $y=3.1 $x2=2.04 $y2=2.215
9 X1/NET1:9 X1/X1/NET6:8 2.35807e-06 // $x=10.73 $y=2.11 $x2=0 $y2=0
10 X1/NET1:52 X1/X1/NET6:8 2.55219e-07 // $x=13.07 $y=2.14 $x2=0 $y2=0
11 X1/NET1:38 X1/X1/NET6:24 5.13976e-06 // $x=0.58 $y=3.1 $x2=0 $y2=0
12 X1/NET1:7 X1/X1/NET6:44 2.24126e-06 // $x=10.645 $y=2.025 $x2=0 $y2=0
13 X1/NET1:9 X1/X1/NET6:44 3.45709e-07 // $x=10.73 $y=2.11 $x2=0 $y2=0
14 X1/NET1:1 X1/NET7:2 5.42656e-06 // $x=0.54 $y=3.01 $x2=0 $y2=0
15 X1/NET1:4 X1/NET7:2 2.23766e-07 // $x=0.475 $y=3.1 $x2=0 $y2=0
16 X1/NET1:38 X1/NET7:2 3.11613e-06 // $x=0.58 $y=3.1 $x2=0 $y2=0
17 X1/NET1:38 X1/NET7:14 1.12238e-05 // $x=0.58 $y=3.1 $x2=0 $y2=0
18 X1/NET1:29 X1/NET7:20 9.67209e-07 // $x=10.455 $y=1.415 $x2=2.245 $y2=3.335
19 X1/NET1:1 X1/NET7:41 1.02549e-06 // $x=0.54 $y=3.01 $x2=0 $y2=0
20 x1/x1/MN13:d X1/NET7:41 1.10806e-05 // $x=0.985 $y=1.735 $x2=0 $y2=0
21 X1/NET1:29 X1/NET4:33 1.18775e-06 // $x=10.455 $y=1.415 $x2=0 $y2=0
22 X1/NET1:25 X1/NET4:41 9.83031e-07 // $x=13.07 $y=2.14 $x2=0 $y2=0
23 X1/NET1:36 X1/NET4:41 7.99884e-07 // $x=13.037 $y=5.695 $x2=0 $y2=0
24 X1/NET1:52 X1/NET4:41 9.02709e-07 // $x=13.07 $y=2.14 $x2=0 $y2=0
25 X1/NET1:29 X1/NET4:42 6.09682e-05 // $x=10.455 $y=1.415 $x2=0 $y2=0
26 X1/NET1:29 X1/NET4:46 6.41216e-05 // $x=10.455 $y=1.415 $x2=0 $y2=0
27 X1/NET1:29 X1/NET4:53 4.75361e-06 // $x=10.455 $y=1.415 $x2=0 $y2=0
28 X1/NET1:14 X1/NET4:63 5.67283e-07 // $x=10.635 $y=1.515 $x2=0 $y2=0
29 X1/NET1:29 X1/NET4:63 4.91562e-06 // $x=10.455 $y=1.415 $x2=0 $y2=0
30 X1/NET1:41 X1/NET4:63 9.64323e-07 // $x=10.632 $y=1.415 $x2=0 $y2=0
31 X1/NET1:29 X1/NET4:68 0.000104986 // $x=10.455 $y=1.415 $x2=0 $y2=0
32 X1/NET1:29 X1/NET4:69 3.31311e-05 // $x=10.455 $y=1.415 $x2=0 $y2=0
33 X1/NET1:29 X1/NET4:84 1.40697e-05 // $x=10.455 $y=1.415 $x2=0 $y2=0
34 X1/NET1:29 X1/NET4:88 2.63061e-06 // $x=10.455 $y=1.415 $x2=0 $y2=0
35 X1/NET1:41 X1/NET4:88 8.01878e-07 // $x=10.632 $y=1.415 $x2=0 $y2=0
36 X1/NET1:29 GND:12 0.000666457 // $x=10.455 $y=1.415 $x2=0 $y2=0
37 X1/NET1:1 GND:13 3.9586e-05 // $x=0.54 $y=3.01 $x2=0 $y2=0
38 X1/NET1:28 GND:13 3.3075e-05 // $x=0.575 $y=2.958 $x2=0 $y2=0
39 X1/NET1:29 GND:13 0.000157259 // $x=10.455 $y=1.415 $x2=0 $y2=0
40 X1/NET1:30 GND:13 2.51219e-05 // $x=0.66 $y=1.415 $x2=0 $y2=0
41 X1/NET1:38 GND:13 2.92912e-06 // $x=0.58 $y=3.1 $x2=0 $y2=0
42 X1/NET1:76 GND:13 1.08976e-06 // $x=0.475 $y=3.1 $x2=0 $y2=0
43 x1/x1/MN13:d GND:13 1.242e-05 // $x=0.985 $y=1.735 $x2=0 $y2=0
44 X1/NET1:64 GND:30 2.86039e-06 // $x=12.235 $y=7.855 $x2=0 $y2=0
45 X1/NET1:14 GND:40 4.43668e-06 // $x=10.635 $y=1.515 $x2=0 $y2=0
46 X1/NET1:23 GND:40 1.82321e-05 // $x=12.895 $y=2.14 $x2=0 $y2=0
47 X1/NET1:29 GND:40 1.41031e-05 // $x=10.455 $y=1.415 $x2=0 $y2=0
48 X1/NET1:41 GND:40 2.33343e-06 // $x=10.632 $y=1.415 $x2=0 $y2=0
49 x1/x3/MN1:s GND:40 2.18283e-06 // $x=12.9 $y=0.575 $x2=0 $y2=0
50 X1/NET1:7 GND:41 2.07647e-06 // $x=10.645 $y=2.025 $x2=0 $y2=0
51 X1/NET1:14 GND:41 1.96675e-05 // $x=10.635 $y=1.515 $x2=0 $y2=0
52 X1/NET1:29 GND:41 9.02058e-05 // $x=10.455 $y=1.415 $x2=0 $y2=0
53 X1/NET1:41 GND:41 4.62742e-06 // $x=10.632 $y=1.415 $x2=0 $y2=0
54 X1/NET1:18 GND:201 6.54662e-07 // $x=12.235 $y=6.4 $x2=0 $y2=0
55 X1/NET1:29 GND:278 4.26857e-05 // $x=10.455 $y=1.415 $x2=0 $y2=0
56 X1/NET1:7 GND:323 1.07572e-05 // $x=10.645 $y=2.025 $x2=0 $y2=0
57 X1/NET1:9 GND:323 6.87353e-07 // $x=10.73 $y=2.11 $x2=0 $y2=0
58 X1/NET1:29 GND:323 3.02747e-05 // $x=10.455 $y=1.415 $x2=0 $y2=0
59 X1/NET1:41 GND:323 1.00875e-05 // $x=10.632 $y=1.415 $x2=0 $y2=0
60 X1/NET1:52 GND:323 4.11845e-06 // $x=13.07 $y=2.14 $x2=0 $y2=0
61 X1/NET1:29 GND:333 1.89833e-06 // $x=10.455 $y=1.415 $x2=0 $y2=0
62 X1/NET1:1 GND:400 2.52336e-06 // $x=0.54 $y=3.01 $x2=0 $y2=0
63 X1/NET1:76 GND:400 9.71728e-07 // $x=0.475 $y=3.1 $x2=0 $y2=0
64 x1/x1/MN13:d GND:400 2.34784e-05 // $x=0.985 $y=1.735 $x2=0 $y2=0
65 X1/NET1:14 GND:437 3.00494e-06 // $x=10.635 $y=1.515 $x2=0 $y2=0
66 X1/NET1:14 GND:438 2.75008e-06 // $x=10.635 $y=1.515 $x2=0 $y2=0
67 x1/x3/MN1:s GND:447 1.1298e-05 // $x=12.9 $y=0.575 $x2=0 $y2=0
68 X1/NET1:64 GND:451 1.21387e-05 // $x=12.235 $y=7.855 $x2=0 $y2=0
69 x1/x3/MN1:s GND:463 1.33082e-06 // $x=12.9 $y=0.575 $x2=0 $y2=0
70 X1/NET1:64 GND:465 1.28014e-06 // $x=12.235 $y=7.855 $x2=0 $y2=0
71 X1/NET1:7 GND:1084 2.21215e-07 // $x=10.645 $y=2.025 $x2=0 $y2=0
72 X1/NET1:14 GND:1084 3.70648e-07 // $x=10.635 $y=1.515 $x2=0 $y2=0
73 X1/NET1:1 x1/x1/MN13:s 6.72683e-06 // $x=0.54 $y=3.01 $x2=0 $y2=0
74 X1/NET1:28 x1/x1/MN13:s 8.87543e-06 // $x=0.575 $y=2.958 $x2=0 $y2=0
75 X1/NET1:76 x1/x1/MN13:s 2.81039e-06 // $x=0.475 $y=3.1 $x2=0 $y2=0
76 x1/x1/MN13:d x1/x1/MN13:s 1.95505e-05 // $x=0.985 $y=1.735 $x2=0 $y2=0
77 x1/x1/MN13:d x1/x1/MN14:s 1.52852e-05 // $x=0.985 $y=1.735 $x2=0 $y2=0
78 X1/NET1:23 x1/x3/MN2:s 1.11049e-06 // $x=12.895 $y=2.14 $x2=0 $y2=0
79 X1/NET1:64 x1/x2/MN2:s 1.87278e-06 // $x=12.235 $y=7.855 $x2=0 $y2=0
80 x1/x3/MN1:s x1/x4/MN0:s 8.67204e-06 // $x=12.9 $y=0.575 $x2=0 $y2=0
81 X1/NET1:36 X2/NET1:4 3.87272e-06 // $x=13.037 $y=5.695 $x2=2.04 $y2=2.215
82 X1/NET1:36 X2/NET1:28 4.42326e-06 // $x=13.037 $y=5.695 $x2=0 $y2=0
83 X1/NET1:52 X2/NET1:28 2.87191e-06 // $x=13.07 $y=2.14 $x2=0 $y2=0
84 X1/NET1:36 X2/NET1:38 2.0391e-06 // $x=13.037 $y=5.695 $x2=0 $y2=0
85 X1/NET1:36 X2/NET7:14 1.68177e-06 // $x=13.037 $y=5.695 $x2=0 $y2=0
86 X1/NET1:1 X1/X1/NET9:2 4.69609e-07 // $x=0.54 $y=3.01 $x2=0 $y2=0
87 X1/NET1:76 X1/X1/NET9:2 4.47748e-06 // $x=0.475 $y=3.1 $x2=0 $y2=0
88 X1/NET1:1 X1/X1/NET9:26 6.23591e-06 // $x=0.54 $y=3.01 $x2=0 $y2=0
89 X1/NET1:4 X1/X1/NET9:26 2.70332e-06 // $x=0.475 $y=3.1 $x2=0 $y2=0
90 X1/NET1:38 X1/X1/NET9:26 5.69045e-06 // $x=0.58 $y=3.1 $x2=0 $y2=0
91 X1/NET1:76 X1/X1/NET9:26 1.09374e-05 // $x=0.475 $y=3.1 $x2=0 $y2=0
92 x1/x1/MN13:d X1/X1/NET9:26 1.07759e-05 // $x=0.985 $y=1.735 $x2=0 $y2=0
93 X1/NET1:1 x1/x1/MP14:g 3.5676e-06 // $x=0.54 $y=3.01 $x2=0 $y2=0
94 X1/NET1:38 x1/x1/MP14:g 6.49981e-06 // $x=0.58 $y=3.1 $x2=0 $y2=0
95 X1/NET1:76 x1/x1/MP14:g 1.80277e-05 // $x=0.475 $y=3.1 $x2=0 $y2=0
96 X1/NET1:1 X1/X1/NET9:45 5.47697e-06 // $x=0.54 $y=3.01 $x2=0 $y2=0
97 X1/NET1:28 X1/X1/NET9:45 1.1887e-06 // $x=0.575 $y=2.958 $x2=0 $y2=0
98 x1/x1/MN13:d X1/X1/NET9:45 1.40157e-05 // $x=0.985 $y=1.735 $x2=0 $y2=0
99 X1/NET1:1 X1/X1/NET9:56 5.66042e-06 // $x=0.54 $y=3.01 $x2=0 $y2=0
100 X1/NET1:38 X1/X1/NET9:56 7.28376e-07 // $x=0.58 $y=3.1 $x2=0 $y2=0
101 x1/x1/MN13:d X1/X1/NET9:56 3.55496e-06 // $x=0.985 $y=1.735 $x2=0 $y2=0
102 X1/NET1:1 X1/X1/NET8:2 7.27784e-06 // $x=0.54 $y=3.01 $x2=0 $y2=0
103 X1/NET1:29 X1/X1/NET8:10 4.16369e-07 // $x=10.455 $y=1.415 $x2=0 $y2=0
104 X1/NET1:1 X1/X1/NET8:14 2.85419e-06 // $x=0.54 $y=3.01 $x2=0 $y2=0
105 X1/NET1:28 X1/X1/NET8:14 7.18031e-06 // $x=0.575 $y=2.958 $x2=0 $y2=0
106 X1/NET1:29 X1/X1/NET8:14 6.82393e-05 // $x=10.455 $y=1.415 $x2=0 $y2=0
107 X1/NET1:38 X1/X1/NET8:14 7.93637e-07 // $x=0.58 $y=3.1 $x2=0 $y2=0
108 X1/NET1:29 X1/X1/NET8:15 4.41031e-05 // $x=10.455 $y=1.415 $x2=2.077 $y2=1.92
109 X1/NET1:29 X1/X1/NET8:16 7.35342e-06 // $x=10.455 $y=1.415 $x2=0 $y2=0
110 X1/NET1:18 NET6:3 5.26093e-05 // $x=12.235 $y=6.4 $x2=2.12 $y2=2.215
111 X1/NET1:33 NET6:3 1.51772e-05 // $x=12.95 $y=5.782 $x2=2.12 $y2=2.215
112 X1/NET1:45 NET6:3 3.72472e-06 // $x=12.28 $y=6.4 $x2=2.12 $y2=2.215
113 X1/NET1:64 NET6:3 8.30721e-07 // $x=12.235 $y=7.855 $x2=2.12 $y2=2.215
114 X1/NET1:66 NET6:3 1.74092e-05 // $x=12.235 $y=6.4 $x2=2.12 $y2=2.215
115 X1/NET1:23 NET6:18 4.90782e-05 // $x=12.895 $y=2.14 $x2=2.04 $y2=2.215
116 X1/NET1:36 NET6:18 7.05478e-06 // $x=13.037 $y=5.695 $x2=2.04 $y2=2.215
117 X1/NET1:33 NET6:22 5.10959e-06 // $x=12.95 $y=5.782 $x2=0 $y2=0
118 X1/NET1:23 NET6:31 2.63902e-05 // $x=12.895 $y=2.14 $x2=0 $y2=0
119 X1/NET1:36 NET6:31 1.69291e-05 // $x=13.037 $y=5.695 $x2=0 $y2=0
120 X1/NET1:48 NET6:31 1.86318e-06 // $x=12.237 $y=5.782 $x2=0 $y2=0
121 X1/NET1:18 NET6:32 1.91681e-05 // $x=12.235 $y=6.4 $x2=0 $y2=0
122 X1/NET1:36 NET6:32 7.36831e-05 // $x=13.037 $y=5.695 $x2=0 $y2=0
123 X1/NET1:45 NET6:32 3.71384e-05 // $x=12.28 $y=6.4 $x2=0 $y2=0
124 X1/NET1:48 NET6:32 5.05913e-05 // $x=12.237 $y=5.782 $x2=0 $y2=0
125 x1/x2/MP1:s NET6:32 9.60545e-06 // $x=12.055 $y=5.015 $x2=0 $y2=0
126 X1/NET1:29 NET6:41 3.27028e-06 // $x=10.455 $y=1.415 $x2=0 $y2=0
127 X1/NET1:38 NET6:41 5.03608e-06 // $x=0.58 $y=3.1 $x2=0 $y2=0
128 X1/NET1:33 NET6:47 7.04593e-06 // $x=12.95 $y=5.782 $x2=0 $y2=0
129 X1/NET1:52 NET6:47 4.15526e-07 // $x=13.07 $y=2.14 $x2=0 $y2=0
130 X1/NET1:18 NET6:48 9.97239e-07 // $x=12.235 $y=6.4 $x2=0 $y2=0
131 X1/NET1:33 NET6:48 1.18846e-05 // $x=12.95 $y=5.782 $x2=0 $y2=0
132 X1/NET1:45 NET6:48 3.19497e-05 // $x=12.28 $y=6.4 $x2=0 $y2=0
133 X1/NET1:64 NET6:48 8.3059e-07 // $x=12.235 $y=7.855 $x2=0 $y2=0
134 X1/NET1:66 NET6:48 3.69629e-06 // $x=12.235 $y=6.4 $x2=0 $y2=0
135 X1/NET1:23 NET6:74 1.00922e-06 // $x=12.895 $y=2.14 $x2=0 $y2=0
136 x1/x3/MN1:s NET6:74 1.56801e-06 // $x=12.9 $y=0.575 $x2=0 $y2=0
137 X1/NET1:23 NET6:77 1.91868e-05 // $x=12.895 $y=2.14 $x2=0 $y2=0
138 x1/x3/MN1:s NET6:77 1.1843e-05 // $x=12.9 $y=0.575 $x2=0 $y2=0
139 x1/x2/MP1:s x1/x3/MP1:s 1.0705e-06 // $x=12.055 $y=5.015 $x2=0 $y2=0
140 X1/NET1:33 x1/x2/MP0:s 6.29443e-06 // $x=12.95 $y=5.782 $x2=0 $y2=0
141 X1/NET1:36 x1/x2/MP0:s 1.14907e-05 // $x=13.037 $y=5.695 $x2=0 $y2=0
142 X1/NET1:64 x1/x2/MP0:s 1.56801e-06 // $x=12.235 $y=7.855 $x2=0 $y2=0
143 X1/NET1:66 x1/x2/MP0:s 1.30025e-05 // $x=12.235 $y=6.4 $x2=0 $y2=0
144 x1/x2/MP1:s x1/x2/MP0:s 2.2934e-06 // $x=12.055 $y=5.015 $x2=0 $y2=0
145 X1/NET1:9 S1:2 7.26065e-07 // $x=10.73 $y=2.11 $x2=0 $y2=0
146 X1/NET1:23 S1:8 1.9718e-05 // $x=12.895 $y=2.14 $x2=0 $y2=0
147 X1/NET1:23 S1:18 8.38642e-06 // $x=12.895 $y=2.14 $x2=2.04 $y2=2.215
148 X1/NET1:7 S1:32 1.03861e-05 // $x=10.645 $y=2.025 $x2=0 $y2=0
149 X1/NET1:14 S1:32 1.12467e-06 // $x=10.635 $y=1.515 $x2=0 $y2=0
150 X1/NET1:23 S1:32 2.13374e-05 // $x=12.895 $y=2.14 $x2=0 $y2=0
151 X1/NET1:66 S1:38 2.00493e-06 // $x=12.235 $y=6.4 $x2=0 $y2=0
152 x1/x2/MP1:s S1:38 7.45573e-07 // $x=12.055 $y=5.015 $x2=0 $y2=0
153 X1/NET1:14 x1/x3/MN2:g 4.59943e-06 // $x=10.635 $y=1.515 $x2=0 $y2=0
154 x1/x3/MN1:s x1/x3/MN1:g 2.79273e-05 // $x=12.9 $y=0.575 $x2=0 $y2=0
155 X1/NET1:66 x1/x2/MN1:g 4.8251e-06 // $x=12.235 $y=6.4 $x2=0 $y2=0
156 X1/NET1:23 x1/x3/MP2:g 1.18909e-05 // $x=12.895 $y=2.14 $x2=0 $y2=0
157 X1/NET1:23 S1:82 8.78691e-06 // $x=12.895 $y=2.14 $x2=0 $y2=0
158 X1/NET1:36 S1:86 1.1024e-06 // $x=13.037 $y=5.695 $x2=0 $y2=0
159 x1/x2/MP1:s S1:86 3.50279e-06 // $x=12.055 $y=5.015 $x2=0 $y2=0
160 X1/NET1:66 S1:88 1.31424e-05 // $x=12.235 $y=6.4 $x2=0 $y2=0
161 X1/NET1:23 S1:90 4.53066e-07 // $x=12.895 $y=2.14 $x2=0 $y2=0
162 X1/NET1:36 S1:90 1.1024e-06 // $x=13.037 $y=5.695 $x2=0 $y2=0
163 X1/NET1:18 S1:92 3.71941e-06 // $x=12.235 $y=6.4 $x2=0 $y2=0
164 X1/NET1:33 S1:92 3.02503e-06 // $x=12.95 $y=5.782 $x2=0 $y2=0
165 X1/NET1:45 S1:92 1.21924e-06 // $x=12.28 $y=6.4 $x2=0 $y2=0
166 X1/NET1:46 S1:92 3.65045e-07 // $x=12.28 $y=6.22 $x2=0 $y2=0
167 X1/NET1:48 S1:92 3.00046e-06 // $x=12.237 $y=5.782 $x2=0 $y2=0
168 X1/NET1:84 S1:92 5.22116e-06 // $x=12.207 $y=6.245 $x2=0 $y2=0
169 x1/x2/MP1:s S1:92 1.89747e-05 // $x=12.055 $y=5.015 $x2=0 $y2=0
170 X1/NET1:7 S1:109 4.70393e-06 // $x=10.645 $y=2.025 $x2=0 $y2=0
171 X1/NET1:14 S1:109 6.51442e-07 // $x=10.635 $y=1.515 $x2=0 $y2=0
172 X1/NET1:23 S1:109 2.31339e-06 // $x=12.895 $y=2.14 $x2=0 $y2=0
173 X1/NET1:36 X2/X1/NET9:2 4.85533e-06 // $x=13.037 $y=5.695 $x2=0 $y2=0
174 X1/NET1:33 NET5:21 8.73112e-07 // $x=12.95 $y=5.782 $x2=2.59 $y2=3.32
175 X1/NET1:64 NET5:21 2.91773e-06 // $x=12.235 $y=7.855 $x2=2.59 $y2=3.32
176 X1/NET1:1 VDD:5 3.92502e-06 // $x=0.54 $y=3.01 $x2=2.245 $y2=3.335
177 X1/NET1:29 VDD:5 2.45826e-06 // $x=10.455 $y=1.415 $x2=2.245 $y2=3.335
178 X1/NET1:4 VDD:6 9.05702e-06 // $x=0.475 $y=3.1 $x2=2.245 $y2=3.335
179 X1/NET1:38 VDD:6 1.63229e-05 // $x=0.58 $y=3.1 $x2=2.245 $y2=3.335
180 X1/NET1:76 VDD:6 7.0885e-06 // $x=0.475 $y=3.1 $x2=2.245 $y2=3.335
181 X1/NET1:36 VDD:30 1.98833e-06 // $x=13.037 $y=5.695 $x2=0 $y2=0
182 X1/NET1:9 VDD:133 1.13166e-05 // $x=10.73 $y=2.11 $x2=0 $y2=0
183 X1/NET1:18 VDD:133 3.06912e-06 // $x=12.235 $y=6.4 $x2=0 $y2=0
184 X1/NET1:25 VDD:133 1.61223e-06 // $x=13.07 $y=2.14 $x2=0 $y2=0
185 X1/NET1:36 VDD:133 9.18513e-05 // $x=13.037 $y=5.695 $x2=0 $y2=0
186 X1/NET1:41 VDD:133 8.88347e-07 // $x=10.632 $y=1.415 $x2=0 $y2=0
187 X1/NET1:45 VDD:133 6.60372e-07 // $x=12.28 $y=6.4 $x2=0 $y2=0
188 X1/NET1:48 VDD:133 3.5326e-05 // $x=12.237 $y=5.782 $x2=0 $y2=0
189 X1/NET1:52 VDD:133 2.71794e-06 // $x=13.07 $y=2.14 $x2=0 $y2=0
190 X1/NET1:84 VDD:133 2.31928e-07 // $x=12.207 $y=6.245 $x2=0 $y2=0
191 x1/x3/MN1:s VDD:133 2.608e-06 // $x=12.9 $y=0.575 $x2=0 $y2=0
192 x1/x2/MP1:s VDD:133 2.27481e-06 // $x=12.055 $y=5.015 $x2=0 $y2=0
193 X1/NET1:4 VDD:175 2.17269e-07 // $x=0.475 $y=3.1 $x2=0 $y2=0
194 X1/NET1:76 VDD:175 1.33741e-05 // $x=0.475 $y=3.1 $x2=0 $y2=0
195 X1/NET1:18 VDD:243 2.12406e-06 // $x=12.235 $y=6.4 $x2=0 $y2=0
196 X1/NET1:84 VDD:243 3.43681e-07 // $x=12.207 $y=6.245 $x2=0 $y2=0
197 x1/x3/MN1:s VDD:243 1.21812e-05 // $x=12.9 $y=0.575 $x2=0 $y2=0
198 x1/x2/MP1:s VDD:243 1.06713e-05 // $x=12.055 $y=5.015 $x2=0 $y2=0
199 X1/NET1:36 x1/x4/MP0:s 8.98067e-06 // $x=13.037 $y=5.695 $x2=0 $y2=0
200 x1/x3/MN1:s x1/x4/MP0:s 9.59213e-06 // $x=12.9 $y=0.575 $x2=0 $y2=0
201 X1/NET1:36 x1/x6/MP0:s 9.73317e-06 // $x=13.037 $y=5.695 $x2=0 $y2=0
202 X1/NET1:7 X1/NET5:2 2.49569e-06 // $x=10.645 $y=2.025 $x2=0 $y2=0
203 X1/NET1:14 X1/NET5:2 4.14226e-06 // $x=10.635 $y=1.515 $x2=0 $y2=0
204 X1/NET1:23 X1/NET5:2 3.33252e-05 // $x=12.895 $y=2.14 $x2=0 $y2=0
205 X1/NET1:41 X1/NET5:2 3.64571e-06 // $x=10.632 $y=1.415 $x2=0 $y2=0
206 x1/x3/MN1:s X1/NET5:2 1.27188e-05 // $x=12.9 $y=0.575 $x2=0 $y2=0
207 X1/NET1:23 X1/NET5:3 1.22631e-05 // $x=12.895 $y=2.14 $x2=2.12 $y2=2.215
208 X1/NET1:25 X1/NET5:3 3.83292e-05 // $x=13.07 $y=2.14 $x2=2.12 $y2=2.215
209 X1/NET1:52 X1/NET5:3 1.41108e-05 // $x=13.07 $y=2.14 $x2=2.12 $y2=2.215
210 x1/x3/MN1:s X1/NET5:3 2.19944e-05 // $x=12.9 $y=0.575 $x2=2.12 $y2=2.215
211 X1/NET1:7 X1/NET5:6 7.39398e-07 // $x=10.645 $y=2.025 $x2=2.245 $y2=3.335
212 X1/NET1:25 X1/NET5:6 8.79252e-06 // $x=13.07 $y=2.14 $x2=2.245 $y2=3.335
213 X1/NET1:36 X1/NET5:6 2.99163e-05 // $x=13.037 $y=5.695 $x2=2.245 $y2=3.335
214 X1/NET1:52 X1/NET5:6 6.02603e-06 // $x=13.07 $y=2.14 $x2=2.245 $y2=3.335
215 x1/x3/MN1:s X1/NET5:6 6.97524e-06 // $x=12.9 $y=0.575 $x2=2.245 $y2=3.335
216 X1/NET1:23 X1/NET5:8 9.55137e-07 // $x=12.895 $y=2.14 $x2=0 $y2=0
217 x1/x3/MN1:s X1/NET5:8 5.40892e-06 // $x=12.9 $y=0.575 $x2=0 $y2=0
218 X1/NET1:23 X1/NET5:21 1.96891e-05 // $x=12.895 $y=2.14 $x2=2.59 $y2=3.32
219 X1/NET1:25 X1/NET5:21 3.3734e-06 // $x=13.07 $y=2.14 $x2=2.59 $y2=3.32
220 X1/NET1:36 X1/NET5:21 1.15995e-05 // $x=13.037 $y=5.695 $x2=2.59 $y2=3.32
221 x1/x3/MN1:s X1/NET5:21 0.000112806 // $x=12.9 $y=0.575 $x2=2.59 $y2=3.32
222 X1/NET1:25 X1/NET5:28 2.09319e-06 // $x=13.07 $y=2.14 $x2=0 $y2=0
223 x1/x3/MN1:s X1/NET5:28 3.58001e-07 // $x=12.9 $y=0.575 $x2=0 $y2=0
224 x1/x3/MN1:s X1/NET5:33 1.50639e-05 // $x=12.9 $y=0.575 $x2=0 $y2=0
225 x1/x3/MN1:s x1/x4/MN0:g 7.9271e-06 // $x=12.9 $y=0.575 $x2=0 $y2=0
226 x1/x3/MN1:s x1/x4/MP0:g 2.35293e-06 // $x=12.9 $y=0.575 $x2=0 $y2=0
227 x1/x3/MN1:s X1/NET5:44 3.28864e-07 // $x=12.9 $y=0.575 $x2=0 $y2=0
228 x1/x3/MN1:s x1/x3/MN0:d 2.76303e-05 // $x=12.9 $y=0.575 $x2=0 $y2=0
229 X1/NET1:66 X1/NET6:1 2.42961e-05 // $x=12.235 $y=6.4 $x2=0 $y2=0
230 X1/NET1:46 X1/NET6:5 3.86325e-06 // $x=12.28 $y=6.22 $x2=2.245 $y2=3.335
231 X1/NET1:48 X1/NET6:5 5.2272e-06 // $x=12.237 $y=5.782 $x2=2.245 $y2=3.335
232 X1/NET1:18 X1/NET6:6 1.45543e-06 // $x=12.235 $y=6.4 $x2=2.245 $y2=3.335
233 X1/NET1:45 X1/NET6:6 8.02143e-06 // $x=12.28 $y=6.4 $x2=2.245 $y2=3.335
234 X1/NET1:46 X1/NET6:6 3.92216e-06 // $x=12.28 $y=6.22 $x2=2.245 $y2=3.335
235 X1/NET1:66 X1/NET6:8 7.76332e-06 // $x=12.235 $y=6.4 $x2=0 $y2=0
236 X1/NET1:64 X1/NET6:22 1.63443e-05 // $x=12.235 $y=7.855 $x2=0 $y2=0
237 X1/NET1:66 X1/NET6:22 1.7586e-05 // $x=12.235 $y=6.4 $x2=0 $y2=0
238 X1/NET1:18 x1/x2/MP1:d 5.49944e-06 // $x=12.235 $y=6.4 $x2=0 $y2=0
239 X1/NET1:33 x1/x2/MP1:d 9.13019e-06 // $x=12.95 $y=5.782 $x2=0 $y2=0
240 X1/NET1:36 x1/x2/MP1:d 5.1738e-06 // $x=13.037 $y=5.695 $x2=0 $y2=0
241 X1/NET1:45 x1/x2/MP1:d 6.88731e-07 // $x=12.28 $y=6.4 $x2=0 $y2=0
242 X1/NET1:46 x1/x2/MP1:d 2.54036e-06 // $x=12.28 $y=6.22 $x2=0 $y2=0
243 X1/NET1:48 x1/x2/MP1:d 3.38969e-06 // $x=12.237 $y=5.782 $x2=0 $y2=0
244 X1/NET1:66 x1/x2/MP1:d 4.47144e-06 // $x=12.235 $y=6.4 $x2=0 $y2=0
245 X1/NET1:84 x1/x2/MP1:d 6.51086e-05 // $x=12.207 $y=6.245 $x2=0 $y2=0
246 x1/x2/MP1:s x1/x2/MP1:d 4.91455e-05 // $x=12.055 $y=5.015 $x2=0 $y2=0
247 x1/x3/MN1:s X1/NET3:2 7.48955e-06 // $x=12.9 $y=0.575 $x2=0 $y2=0
248 x1/x3/MN1:s X1/NET3:8 2.1065e-06 // $x=12.9 $y=0.575 $x2=0 $y2=0
249 X1/NET1:36 X1/NET3:22 2.80832e-06 // $x=13.037 $y=5.695 $x2=0 $y2=0
250 x1/x3/MN1:s X1/NET3:22 7.14734e-06 // $x=12.9 $y=0.575 $x2=0 $y2=0
251 x1/x3/MN1:s x1/x4/MN0:d 2.93326e-06 // $x=12.9 $y=0.575 $x2=0 $y2=0
252 X1/NET1:36 x1/x6/MP0:d 3.11369e-06 // $x=13.037 $y=5.695 $x2=0 $y2=0
253 X1/NET1:23 X1/X3/NSEL:6 8.55044e-06 // $x=12.895 $y=2.14 $x2=2.245 $y2=3.335
254 X1/NET1:14 X1/X3/NSEL:14 4.72716e-06 // $x=10.635 $y=1.515 $x2=0 $y2=0
255 X1/NET1:23 X1/X3/NSEL:14 3.95105e-06 // $x=12.895 $y=2.14 $x2=0 $y2=0
256 X1/NET1:41 X1/X3/NSEL:14 2.08894e-07 // $x=10.632 $y=1.415 $x2=0 $y2=0
257 x1/x3/MN1:s X1/X3/NSEL:14 6.22937e-07 // $x=12.9 $y=0.575 $x2=0 $y2=0
258 X1/NET1:23 X1/X3/NSEL:19 2.38142e-05 // $x=12.895 $y=2.14 $x2=2.245 $y2=3.32
259 X1/NET1:25 x1/x3/MP0:g 1.38278e-06 // $x=13.07 $y=2.14 $x2=0 $y2=0
260 X1/NET1:36 x1/x3/MP0:g 1.28456e-06 // $x=13.037 $y=5.695 $x2=0 $y2=0
261 X1/NET1:23 X1/X3/NSEL:25 7.35691e-06 // $x=12.895 $y=2.14 $x2=2.425 $y2=2.985
262 X1/NET1:25 X1/X3/NSEL:25 1.06991e-06 // $x=13.07 $y=2.14 $x2=2.425 $y2=2.985
263 x1/x3/MN1:s X1/X3/NSEL:25 3.27998e-05 // $x=12.9 $y=0.575 $x2=2.425 $y2=2.985
264 x1/x3/MN1:s x1/x3/MN2:d 4.5864e-07 // $x=12.9 $y=0.575 $x2=0 $y2=0
265 X1/NET1:66 X1/X2/NSEL:6 1.42138e-05 // $x=12.235 $y=6.4 $x2=2.245 $y2=3.335
266 X1/NET1:18 X1/X2/NSEL:14 3.16256e-06 // $x=12.235 $y=6.4 $x2=0 $y2=0
267 X1/NET1:66 X1/X2/NSEL:14 2.55958e-05 // $x=12.235 $y=6.4 $x2=0 $y2=0
268 X1/NET1:66 X1/X2/NSEL:19 2.72949e-05 // $x=12.235 $y=6.4 $x2=2.245 $y2=3.32
269 X1/NET1:64 x1/x2/MN0:g 4.24594e-06 // $x=12.235 $y=7.855 $x2=2.59 $y2=3.32
270 X1/NET1:66 x1/x2/MN0:g 7.76828e-06 // $x=12.235 $y=6.4 $x2=2.59 $y2=3.32
271 X1/NET1:33 x1/x2/MP0:g 5.39563e-06 // $x=12.95 $y=5.782 $x2=0 $y2=0
272 X1/NET1:36 x1/x2/MP0:g 1.28456e-06 // $x=13.037 $y=5.695 $x2=0 $y2=0
273 X1/NET1:18 X1/X2/NSEL:23 1.67388e-06 // $x=12.235 $y=6.4 $x2=1.945 $y2=1.735
274 X1/NET1:33 X1/X2/NSEL:23 6.9747e-07 // $x=12.95 $y=5.782 $x2=1.945 $y2=1.735
275 X1/NET1:66 X1/X2/NSEL:23 1.27624e-05 // $x=12.235 $y=6.4 $x2=1.945 $y2=1.735
276 X1/NET1:84 X1/X2/NSEL:23 1.72718e-06 // $x=12.207 $y=6.245 $x2=1.945 $y2=1.735
277 X1/NET1:64 X1/X2/NSEL:25 2.17852e-06 // $x=12.235 $y=7.855 $x2=2.425 $y2=2.985
278 X1/NET1:66 X1/X2/NSEL:25 1.34274e-05 // $x=12.235 $y=6.4 $x2=2.425 $y2=2.985
279 X1/NET1:18 X1/X2/NSEL:36 1.86131e-06 // $x=12.235 $y=6.4 $x2=0 $y2=0
280 X1/NET1:66 X1/X2/NSEL:36 4.665e-06 // $x=12.235 $y=6.4 $x2=0 $y2=0
281 X1/NET1:66 X1/X2/NSEL:40 4.69871e-06 // $x=12.235 $y=6.4 $x2=0 $y2=0
282 X1/NET1:64 x1/x2/MN2:d 2.01165e-05 // $x=12.235 $y=7.855 $x2=0 $y2=0
283 X1/NET1:66 x1/x2/MN2:d 7.6635e-06 // $x=12.235 $y=6.4 $x2=0 $y2=0
284 X1/NET1:18 x1/x2/MP2:d 5.48668e-06 // $x=12.235 $y=6.4 $x2=0 $y2=0
285 X1/NET1:66 x1/x2/MP2:d 7.51806e-06 // $x=12.235 $y=6.4 $x2=0 $y2=0
286 x1/x2/MP1:s x1/x2/MP2:d 4.80957e-05 // $x=12.055 $y=5.015 $x2=0 $y2=0
287 x1/x2/MP1:s 1.44556e-05 // $x=12.055 $y=5.015
288 x1/x3/MN1:s 7.68499e-05 // $x=12.9 $y=0.575
289 x1/x1/MN13:d 1.51175e-05 // $x=0.985 $y=1.735
290 X1/NET1:84 3.71094e-06 // $x=12.207 $y=6.245
291 X1/NET1:76 3.53046e-05 // $x=0.475 $y=3.1
292 X1/NET1:66 1.43169e-05 // $x=12.235 $y=6.4
293 X1/NET1:64 8.94889e-06 // $x=12.235 $y=7.855
294 X1/NET1:52 5.32915e-07 // $x=13.07 $y=2.14
295 X1/NET1:48 7.89487e-06 // $x=12.237 $y=5.782
296 X1/NET1:46 1.50586e-06 // $x=12.28 $y=6.22
297 X1/NET1:45 2.1133e-06 // $x=12.28 $y=6.4
298 X1/NET1:41 1.23328e-05 // $x=10.632 $y=1.415
299 X1/NET1:38 5.89826e-05 // $x=0.58 $y=3.1
300 X1/NET1:36 1.3e-05 // $x=13.037 $y=5.695
301 X1/NET1:33 1.21127e-05 // $x=12.95 $y=5.782
302 X1/NET1:30 5.48766e-06 // $x=0.66 $y=1.415
303 X1/NET1:29 0.000108147 // $x=10.455 $y=1.415
304 X1/NET1:28 4.71742e-05 // $x=0.575 $y=2.958
305 X1/NET1:25 7.05988e-06 // $x=13.07 $y=2.14
306 X1/NET1:23 3.94335e-05 // $x=12.895 $y=2.14
307 X1/NET1:18 1.0456e-05 // $x=12.235 $y=6.4
308 X1/NET1:14 1.47965e-05 // $x=10.635 $y=1.515
309 X1/NET1:9 6.22673e-06 // $x=10.73 $y=2.11
310 X1/NET1:7 8.78642e-06 // $x=10.645 $y=2.025
311 X1/NET1:4 9.27691e-06 // $x=0.475 $y=3.1
312 X1/NET1:1 2.49204e-05 // $x=0.54 $y=3.01

*RES
313 X1/NET1:83 X1/NET1:84 8.97593 // $w=0.242 $lvl=li $x=12.207 $y=6.075 $x2=12.207 $y2=6.245 $l=0.17
314 X1/NET1:83 x1/x2/MP1:s 33.5401 // $w=0.187 $lvl=li $x=12.18 $y=6.075 $x2=12.18 $y2=5.585 $l=0.49
315 X1/NET1:82 x1/x1/MN13:d 9.50857 // $w=0.35 $lvl=li $x=1.132 $y=2.18 $x2=1.132 $y2=1.92 $l=0.26
316 X1/NET1:76 x1/x1/MP14:d 7.81395 // $w=0.344 $lvl=li $x=0.587 $y=3.1 $x2=0.587 $y2=3.31 $l=0.21
317 X1/NET1:71 x1/x3/MP0:s 81.1123 // $w=0.187 $lvl=li $x=13.04 $y=2.11 $x2=13.04 $y2=3.295 $l=1.185
318 X1/NET1:71 x1/x3/MN1:s 92.7487 // $w=0.187 $lvl=li $x=13.04 $y=2.11 $x2=13.04 $y2=0.755 $l=1.355
319 X1/NET1:66 X1/NET1:84 10.6096 // $w=0.187 $lvl=li $x=12.235 $y=6.4 $x2=12.235 $y2=6.245 $l=0.155
320 X1/NET1:64 x1/x2/MN0:s 18.2793 // $w=0.191 $lvl=li $x=12.235 $y=7.855 $x2=12.207 $y2=8.125 $l=0.283655
321 X1/NET1:64 X1/NET1:66 99.5936 // $w=0.187 $lvl=li $x=12.235 $y=7.855 $x2=12.235 $y2=6.4 $l=1.455
322 X1/NET1:52 X1/NET1:54 0.110881 // $w=0.311 $lvl=m2 $x=13.07 $y=2.14 $x2=13.07 $y2=2.315 $l=0.175
323 X1/NET1:48 X1/NET1:50 0.241728 // $w=0.136 $lvl=m2 $x=12.237 $y=5.782 $x2=12.237 $y2=6.045 $l=0.263
324 X1/NET1:46 X1/NET1:50 0.166985 // $w=0.131 $lvl=m2 $x=12.235 $y=6.22 $x2=12.235 $y2=6.045 $l=0.175
325 X1/NET1:45 X1/NET1:46 0.116237 // $w=0.281 $lvl=m2 $x=12.28 $y=6.4 $x2=12.28 $y2=6.22 $l=0.18
326 X1/NET1:41 X1/NET1:43 0.0356125 // $w=0.351 $lvl=m2 $x=10.632 $y=1.415 $x2=10.632 $y2=1.515 $l=0.1
327 X1/NET1:36 X1/NET1:54 3.10662 // $w=0.136 $lvl=m2 $x=13.037 $y=5.695 $x2=13.037 $y2=2.315 $l=3.38
328 X1/NET1:34 X1/NET1:48 0.00769824 // $w=0.175 $lvl=m2 $x=12.325 $y=5.782 $x2=12.237 $y2=5.782 $l=0.088
329 X1/NET1:33 X1/NET1:36 0.0698411 // $w=0.175 $lvl=m2 $x=12.95 $y=5.782 $x2=13.037 $y2=5.695 $l=0.123037
330 X1/NET1:33 X1/NET1:34 0.574449 // $w=0.136 $lvl=m2 $x=12.95 $y=5.782 $x2=12.325 $y2=5.782 $l=0.625
331 X1/NET1:29 X1/NET1:41 0.0511377 // $w=0.351 $lvl=m2 $x=10.455 $y=1.415 $x2=10.632 $y2=1.415 $l=0.177
332 X1/NET1:29 X1/NET1:30 9.34637 // $w=0.131 $lvl=m2 $x=10.455 $y=1.415 $x2=0.66 $y2=1.415 $l=9.795
333 X1/NET1:28 X1/NET1:38 0.0835147 // $w=0.342 $lvl=m2 $x=0.575 $y=2.958 $x2=0.63 $y2=3.1 $l=0.167254
334 X1/NET1:27 X1/NET1:30 0.0698411 // $w=0.17 $lvl=m2 $x=0.575 $y=1.5 $x2=0.66 $y2=1.415 $l=0.120208
335 X1/NET1:27 X1/NET1:28 1.39122 // $w=0.131 $lvl=m2 $x=0.575 $y=1.5 $x2=0.575 $y2=2.958 $l=1.458
336 X1/NET1:25 X1/NET1:52 4.5 // $w=0.15 $lvl=via1 $x=13.07 $y=2.14 $x2=13.07 $y2=2.14 $l=0.15 $count=1
337 X1/NET1:22 X1/NET1:71 9.3 // $w=0.17 $lvl=mcon $x=13.04 $y=2.11 $x2=13.04 $y2=2.11 $l=0.17 $count=1
338 X1/NET1:22 X1/NET1:25 0.0120579 // $w=0.311 $lvl=m1 $x=13.04 $y=2.14 $x2=13.07 $y2=2.14 $l=0.03
339 X1/NET1:22 X1/NET1:23 0.101447 // $w=0.311 $lvl=m1 $x=13.04 $y=2.14 $x2=12.895 $y2=2.14 $l=0.145
340 X1/NET1:20 X1/NET1:45 4.5 // $w=0.15 $lvl=via1 $x=12.28 $y=6.4 $x2=12.28 $y2=6.4 $l=0.15 $count=1
341 X1/NET1:18 X1/NET1:66 9.3 // $w=0.17 $lvl=mcon $x=12.235 $y=6.4 $x2=12.235 $y2=6.4 $l=0.17 $count=1
342 X1/NET1:18 X1/NET1:20 0.0226815 // $w=0.248 $lvl=m1 $x=12.235 $y=6.4 $x2=12.28 $y2=6.4 $l=0.045
343 X1/NET1:14 X1/NET1:43 4.5 // $w=0.15 $lvl=via1 $x=10.635 $y=1.515 $x2=10.635 $y2=1.515 $l=0.15 $count=1
344 X1/NET1:14 X1/NET1:16 0.113504 // $w=0.311 $lvl=m1 $x=10.635 $y=1.515 $x2=10.635 $y2=1.69 $l=0.175
345 X1/NET1:12 X1/NET1:82 9.3 // $w=0.17 $lvl=mcon $x=1.045 $y=2.18 $x2=1.045 $y2=2.18 $l=0.17 $count=1
346 X1/NET1:9 X1/NET1:23 2.06584 // $w=0.131 $lvl=m1 $x=10.73 $y=2.11 $x2=12.895 $y2=2.11 $l=2.165
347 X1/NET1:7 X1/NET1:9 0.0698411 // $w=0.17 $lvl=m1 $x=10.645 $y=2.025 $x2=10.73 $y2=2.11 $l=0.120208
348 X1/NET1:7 X1/NET1:16 0.319656 // $w=0.131 $lvl=m1 $x=10.645 $y=2.025 $x2=10.645 $y2=1.69 $l=0.335
349 X1/NET1:4 X1/NET1:76 9.3 // $w=0.17 $lvl=mcon $x=0.475 $y=3.1 $x2=0.475 $y2=3.1 $l=0.17 $count=1
350 X1/NET1:4 X1/NET1:38 4.5 // $w=0.15 $lvl=via1 $x=0.58 $y=3.1 $x2=0.58 $y2=3.1 $l=0.15 $count=1
351 X1/NET1:1 X1/NET1:12 0.318296 // $w=0.34 $lvl=m1 $x=0.54 $y=3.01 $x2=1.045 $y2=2.18 $l=1.05264
352 X1/NET1:1 X1/NET1:4 0.0373754 // $w=0.301 $lvl=m1 $x=0.54 $y=3.01 $x2=0.54 $y2=3.1 $l=0.09
353 x1/x1/MN14:d x1/x1/MN13:d 0.01 // $x=0.985 $y=1.735 $x2=0.985 $y2=1.735 $l=0

*END

*D_NET X1/NET8 0.000752525
*CONN
*I x1/x1/MN12:d B 
*I x1/x1/MN11:d B 
*I x1/x1/MP12:d B 

*CAP
0 X1/NET8:4 X1/NET1:1 1.44172e-05 // $x=2.04 $y=2.215 $x2=0.54 $y2=3.01
1 X1/NET8:4 X1/NET1:28 2.36197e-05 // $x=2.04 $y=2.215 $x2=0.575 $y2=2.958
2 X1/NET8:4 X1/NET1:29 3.25656e-05 // $x=2.04 $y=2.215 $x2=10.455 $y2=1.415
3 X1/NET8:4 X1/NET1:38 3.44481e-06 // $x=2.04 $y=2.215 $x2=0.58 $y2=3.1
4 X1/NET8:4 x1/x1/MN13:d 3.7469e-06 // $x=2.04 $y=2.215 $x2=0.985 $y2=1.735
5 x1/x1/MN12:d X1/NET1:1 2.63403e-06 // $x=1.945 $y=1.735 $x2=0.54 $y2=3.01
6 x1/x1/MN12:d x1/x1/MN13:d 2.49429e-06 // $x=1.945 $y=1.735 $x2=0.985 $y2=1.735
7 X1/NET8:4 X1/NET9:4 1.97567e-05 // $x=2.04 $y=2.215 $x2=0.475 $y2=3.1
8 X1/NET8:4 X1/NET9:6 2.91786e-05 // $x=2.04 $y=2.215 $x2=10.645 $y2=1.69
9 X1/NET8:20 X1/NET9:6 3.78469e-06 // $x=2.245 $y=3.335 $x2=10.645 $y2=1.69
10 X1/NET8:4 X1/NET9:18 8.90064e-06 // $x=2.04 $y=2.215 $x2=12.235 $y2=6.4
11 X1/NET8:20 X1/NET9:18 7.73473e-07 // $x=2.245 $y=3.335 $x2=12.235 $y2=6.4
12 X1/NET8:4 X1/NET9:22 7.42085e-07 // $x=2.04 $y=2.215 $x2=13.04 $y2=2.11
13 X1/NET8:20 X1/NET9:22 3.37459e-05 // $x=2.245 $y=3.335 $x2=13.04 $y2=2.11
14 X1/NET8:4 x1/x1/MP12:g 5.93419e-06 // $x=2.04 $y=2.215 $x2=0.66 $y2=1.415
15 X1/NET8:20 x1/x1/MP12:g 2.43256e-05 // $x=2.245 $y=3.335 $x2=0.66 $y2=1.415
16 X1/NET8:4 X1/NET9:31 5.51634e-06 // $x=2.04 $y=2.215 $x2=12.235 $y2=6.045
17 x1/x1/MN12:d X1/NET9:31 8.65779e-06 // $x=1.945 $y=1.735 $x2=12.235 $y2=6.045
18 X1/NET8:4 X1/NET9:37 3.75989e-06 // $x=2.04 $y=2.215 $x2=0.63 $y2=3.1
19 X1/NET8:20 X1/NET9:37 1.7149e-06 // $x=2.245 $y=3.335 $x2=0.63 $y2=3.1
20 x1/x1/MN12:d X1/NET9:37 7.09185e-07 // $x=1.945 $y=1.735 $x2=0.63 $y2=3.1
21 x1/x1/MN12:d x1/x1/MN9:d 1.38929e-06 // $x=1.945 $y=1.735 $x2=0.58 $y2=3.1
22 X1/NET8:4 X1/X1/NET6:28 6.93774e-07 // $x=2.04 $y=2.215 $x2=0.575 $y2=2.958
23 X1/NET8:4 X1/NET7:2 2.1979e-05 // $x=2.04 $y=2.215 $x2=0 $y2=0
24 X1/NET8:4 X1/NET7:14 2.2312e-06 // $x=2.04 $y=2.215 $x2=10.635 $y2=1.515
25 X1/NET8:20 X1/NET7:14 8.22295e-07 // $x=2.245 $y=3.335 $x2=10.635 $y2=1.515
26 X1/NET8:4 X1/NET7:28 1.27406e-06 // $x=2.04 $y=2.215 $x2=0.575 $y2=2.958
27 X1/NET8:20 X1/NET7:28 6.61926e-07 // $x=2.245 $y=3.335 $x2=0.575 $y2=2.958
28 X1/NET8:4 X1/NET4:68 1.55845e-05 // $x=2.04 $y=2.215 $x2=0 $y2=0
29 X1/NET8:4 X1/NET4:78 3.68005e-07 // $x=2.04 $y=2.215 $x2=0 $y2=0
30 X1/NET8:4 GND:12 4.40898e-06 // $x=2.04 $y=2.215 $x2=1.045 $y2=2.18
31 x1/x1/MN12:d GND:12 1.57442e-06 // $x=1.945 $y=1.735 $x2=1.045 $y2=2.18
32 X1/NET8:4 GND:13 4.92048e-05 // $x=2.04 $y=2.215 $x2=10.635 $y2=1.515
33 x1/x1/MN12:d GND:13 4.60762e-06 // $x=1.945 $y=1.735 $x2=10.635 $y2=1.515
34 X1/NET8:4 GND:400 1.05261e-06 // $x=2.04 $y=2.215 $x2=0 $y2=0
35 x1/x1/MN12:d GND:400 1.66511e-05 // $x=1.945 $y=1.735 $x2=0 $y2=0
36 X1/NET8:4 x1/x1/MN14:s 3.69291e-06 // $x=2.04 $y=2.215 $x2=0 $y2=0
37 x1/x1/MN12:d x1/x1/MN14:s 1.57866e-05 // $x=1.945 $y=1.735 $x2=0 $y2=0
38 X1/NET8:4 x1/x1/MN11:s 7.13463e-07 // $x=2.04 $y=2.215 $x2=0 $y2=0
39 X1/NET8:20 x1/x1/MN11:s 1.82468e-06 // $x=2.245 $y=3.335 $x2=0 $y2=0
40 x1/x1/MN12:d x1/x1/MN11:s 8.39478e-06 // $x=1.945 $y=1.735 $x2=0 $y2=0
41 X1/NET8:4 X1/X1/NET9:2 2.16758e-05 // $x=2.04 $y=2.215 $x2=0 $y2=0
42 X1/NET8:20 X1/X1/NET9:2 8.11415e-06 // $x=2.245 $y=3.335 $x2=0 $y2=0
43 X1/NET8:4 X1/X1/NET9:10 1.6816e-06 // $x=2.04 $y=2.215 $x2=0 $y2=0
44 X1/NET8:4 X1/X1/NET9:18 3.24762e-05 // $x=2.04 $y=2.215 $x2=12.235 $y2=6.4
45 X1/NET8:20 X1/X1/NET9:18 2.96797e-06 // $x=2.245 $y=3.335 $x2=12.235 $y2=6.4
46 X1/NET8:4 X1/X1/NET9:26 2.6329e-06 // $x=2.04 $y=2.215 $x2=0 $y2=0