*SPEF "2.0"
*DESIGN "SKY130_OSU_RING_OSCILLATOR_MPR2EA_8"
*DATE "Fri Oct 27 10:30:45 2023"
*VENDOR "Mentor Graphics Corp."
*PROGRAM "Calibre xRC"
*VERSION "v2023.2_27.15"
*DESIGN_FLOW "extraction"
*DIVIDER /
*DELIMITER :
*BUS_DELIMITER []
*T_UNIT 1 NS
*C_UNIT 1 PF
*R_UNIT 1 OHM
*L_UNIT 1 HENRY



// CIRCUIT TEMPERATURE 30C
// NOMINAL TEMPERATURE 30C

*PORTS 
 X5_Y1 B
 VDD B
 X4_Y1 B
 X3_Y1 B
 X2_Y1 B
 X1_Y1 B
 GND B
 S5 B
 S4 B
 S3 B
 S2 B
 S1 B

*D_NET X1/NET1 0.0049885
*CONN
*I x1/x8/MN13:d B 
*I x1/x8/MN14:d B 
*I x1/x2/MN0:s B 
*I x1/x3/MN1:s B 
*I x1/x8/MP14:d B 
*I x1/x2/MP1:s B 
*I x1/x3/MP0:s B 

*CAP
0 X1/NET1:2 X1/NET8:2 9.58135e-06 // $x=1.165 $y=3.01 $x2=2.725 $y2=2.93
1 X1/NET1:37 X1/NET8:2 2.24843e-06 // $x=1.165 $y=3.14 $x2=2.725 $y2=2.93
2 X1/NET1:2 X1/NET8:8 5.65795e-06 // $x=1.165 $y=3.01 $x2=2.605 $y2=2.02
3 X1/NET1:14 X1/NET8:8 1.99697e-05 // $x=1.645 $y=2.02 $x2=2.605 $y2=2.02
4 X1/NET1:30 X1/NET8:8 2.39346e-05 // $x=10.985 $y=1.375 $x2=2.605 $y2=2.02
5 X1/NET1:37 X1/NET8:8 1.72986e-06 // $x=1.165 $y=3.14 $x2=2.605 $y2=2.02
6 X1/NET1:38 X1/NET8:8 1.99178e-05 // $x=1.165 $y=2.955 $x2=2.605 $y2=2.02
7 x1/x8/MN13:d X1/NET8:8 3.24273e-07 // $x=1.48 $y=1.735 $x2=2.605 $y2=2.02
8 X1/NET1:14 x1/x8/MN12:d 3.12159e-07 // $x=1.645 $y=2.02 $x2=2.44 $y2=1.735
9 x1/x8/MN13:d x1/x8/MN12:d 1.42367e-06 // $x=1.48 $y=1.735 $x2=2.44 $y2=1.735
10 X1/NET1:14 X1/NET10:6 2.5739e-07 // $x=1.645 $y=2.02 $x2=3.085 $y2=3.305
11 X1/NET1:37 X1/NET10:10 1.83725e-05 // $x=1.165 $y=3.14 $x2=2.725 $y2=2.02
12 X1/NET1:38 X1/NET10:10 1.54119e-06 // $x=1.165 $y=2.955 $x2=2.725 $y2=2.02
13 X1/NET1:6 X1/X8/NET6:17 4.4192e-06 // $x=11.16 $y=2.395 $x2=0 $y2=0
14 X1/NET1:37 X1/X8/NET6:40 4.64186e-06 // $x=1.165 $y=3.14 $x2=0 $y2=0
15 X1/NET1:6 x1/x8/MN0:d 3.47963e-06 // $x=11.16 $y=2.395 $x2=0 $y2=0
16 X1/NET1:30 X1/NET11:19 1.72978e-05 // $x=10.985 $y=1.375 $x2=0 $y2=0
17 X1/NET1:10 X1/NET6:2 1.35008e-05 // $x=1.165 $y=3.14 $x2=2.725 $y2=2.93
18 X1/NET1:37 X1/NET6:2 6.05387e-07 // $x=1.165 $y=3.14 $x2=2.725 $y2=2.93
19 X1/NET1:56 X1/NET6:2 3.26551e-07 // $x=1.165 $y=3.14 $x2=2.725 $y2=2.93
20 X1/NET1:30 X1/NET6:20 6.43093e-06 // $x=10.985 $y=1.375 $x2=0 $y2=0
21 X1/NET1:2 X1/NET6:25 5.28472e-07 // $x=1.165 $y=3.01 $x2=0 $y2=0
22 X1/NET1:10 X1/NET6:25 3.53199e-06 // $x=1.165 $y=3.14 $x2=0 $y2=0
23 X1/NET1:30 X1/NET6:25 2.76494e-06 // $x=10.985 $y=1.375 $x2=0 $y2=0
24 X1/NET1:37 X1/NET6:25 2.64321e-05 // $x=1.165 $y=3.14 $x2=0 $y2=0
25 X1/NET1:2 X1/NET6:45 2.57113e-06 // $x=1.165 $y=3.01 $x2=0 $y2=0
26 X1/NET1:14 X1/NET6:65 2.31402e-06 // $x=1.645 $y=2.02 $x2=0 $y2=0
27 x1/x8/MN13:d X1/NET6:65 3.33284e-06 // $x=1.48 $y=1.735 $x2=0 $y2=0
28 X1/NET1:14 X1/NET6:71 8.28967e-07 // $x=1.645 $y=2.02 $x2=0 $y2=0
29 X1/NET1:8 X1/NET7:7 1.3696e-06 // $x=11.245 $y=2.48 $x2=2.605 $y2=2.02
30 X1/NET1:6 X1/NET7:11 9.71073e-06 // $x=11.16 $y=2.395 $x2=2.845 $y2=3.42
31 X1/NET1:8 X1/NET7:11 2.18525e-06 // $x=11.245 $y=2.48 $x2=2.845 $y2=3.42
32 X1/NET1:30 X1/NET7:16 0.000236261 // $x=10.985 $y=1.375 $x2=0 $y2=0
33 X1/NET1:41 X1/NET7:19 1.43269e-06 // $x=11.155 $y=1.375 $x2=0 $y2=0
34 X1/NET1:30 X1/NET7:23 1.73225e-05 // $x=10.985 $y=1.375 $x2=2.605 $y2=1.92
35 X1/NET1:30 X1/NET7:28 1.53292e-06 // $x=10.985 $y=1.375 $x2=0 $y2=0
36 X1/NET1:6 X1/NET7:32 1.17771e-06 // $x=11.16 $y=2.395 $x2=0 $y2=0
37 X1/NET1:30 X1/NET7:32 1.25634e-05 // $x=10.985 $y=1.375 $x2=0 $y2=0
38 X1/NET1:30 X1/NET7:38 1.18977e-05 // $x=10.985 $y=1.375 $x2=0 $y2=0
39 X1/NET1:33 NET5:12 2.25458e-05 // $x=12.37 $y=6.745 $x2=2.845 $y2=3.42
40 X1/NET1:49 NET5:12 2.57321e-05 // $x=13.405 $y=6.817 $x2=2.845 $y2=3.42
41 X1/NET1:30 NET5:26 4.91973e-06 // $x=10.985 $y=1.375 $x2=2.605 $y2=2.02
42 X1/NET1:33 NET5:26 3.44551e-06 // $x=12.37 $y=6.745 $x2=2.605 $y2=2.02
43 X1/NET1:6 NET5:29 9.98679e-06 // $x=11.16 $y=2.395 $x2=2.845 $y2=3.335
44 X1/NET1:32 NET5:29 3.76653e-06 // $x=12.37 $y=2.565 $x2=2.845 $y2=3.335
45 X1/NET1:30 NET5:31 2.986e-05 // $x=10.985 $y=1.375 $x2=3.085 $y2=3.335
46 X1/NET1:6 NET5:35 1.36152e-05 // $x=11.16 $y=2.395 $x2=2.92 $y2=2.985
47 X1/NET1:17 NET5:35 5.92973e-06 // $x=11.16 $y=1.635 $x2=2.92 $y2=2.985
48 X1/NET1:41 NET5:35 3.95897e-05 // $x=11.155 $y=1.375 $x2=2.92 $y2=2.985
49 X1/NET1:71 NET5:36 3.05217e-06 // $x=12.72 $y=1.025 $x2=0 $y2=0
50 X1/NET1:7 NET5:38 1.10999e-05 // $x=12.575 $y=2.48 $x2=0 $y2=0
51 X1/NET1:21 NET5:38 1.50096e-05 // $x=12.72 $y=2.48 $x2=0 $y2=0
52 X1/NET1:32 NET5:38 6.22193e-05 // $x=12.37 $y=2.565 $x2=0 $y2=0
53 X1/NET1:71 NET5:38 6.10998e-07 // $x=12.72 $y=1.025 $x2=0 $y2=0
54 X1/NET1:74 NET5:38 5.65072e-06 // $x=12.72 $y=2.48 $x2=0 $y2=0
55 X1/NET1:6 NET5:39 6.23384e-07 // $x=11.16 $y=2.395 $x2=0 $y2=0
56 X1/NET1:25 NET5:42 1.62208e-05 // $x=13.525 $y=6.77 $x2=0 $y2=0
57 X1/NET1:48 NET5:42 7.0982e-06 // $x=13.57 $y=6.815 $x2=0 $y2=0
58 X1/NET1:49 NET5:42 1.41035e-05 // $x=13.405 $y=6.817 $x2=0 $y2=0
59 x1/x3/MP0:s NET5:42 6.25594e-06 // $x=13.385 $y=5.015 $x2=0 $y2=0
60 X1/NET1:21 NET5:45 7.04576e-06 // $x=12.72 $y=2.48 $x2=0 $y2=0
61 X1/NET1:32 NET5:45 1.69474e-05 // $x=12.37 $y=2.565 $x2=0 $y2=0
62 X1/NET1:33 NET5:45 7.76705e-05 // $x=12.37 $y=6.745 $x2=0 $y2=0
63 x1/x3/MP0:s NET5:45 1.14907e-05 // $x=13.385 $y=5.015 $x2=0 $y2=0
64 X1/NET1:6 NET5:53 4.95448e-07 // $x=11.16 $y=2.395 $x2=0 $y2=0
65 X1/NET1:6 NET5:55 3.13146e-05 // $x=11.16 $y=2.395 $x2=0 $y2=0
66 X1/NET1:7 NET5:55 6.34574e-05 // $x=12.575 $y=2.48 $x2=0 $y2=0
67 X1/NET1:17 NET5:55 4.53711e-06 // $x=11.16 $y=1.635 $x2=0 $y2=0
68 X1/NET1:30 NET5:55 6.66236e-07 // $x=10.985 $y=1.375 $x2=0 $y2=0
69 X1/NET1:41 NET5:55 3.15424e-05 // $x=11.155 $y=1.375 $x2=0 $y2=0
70 X1/NET1:33 NET5:57 3.69407e-05 // $x=12.37 $y=6.745 $x2=0 $y2=0
71 X1/NET1:49 NET5:57 3.98071e-05 // $x=13.405 $y=6.817 $x2=0 $y2=0
72 X1/NET1:33 NET5:60 5.61664e-05 // $x=12.37 $y=6.745 $x2=0 $y2=0
73 X1/NET1:49 NET5:81 1.00097e-06 // $x=13.405 $y=6.817 $x2=0 $y2=0
74 x1/x3/MP0:s NET5:81 1.55138e-06 // $x=13.385 $y=5.015 $x2=0 $y2=0
75 X1/NET1:33 NET5:83 2.26579e-07 // $x=12.37 $y=6.745 $x2=0 $y2=0
76 X1/NET1:49 NET5:83 6.66998e-06 // $x=13.405 $y=6.817 $x2=0 $y2=0
77 x1/x3/MP0:s NET5:83 1.276e-05 // $x=13.385 $y=5.015 $x2=0 $y2=0
78 X1/NET1:71 x1/x2/MN1:s 1.55138e-06 // $x=12.72 $y=1.025 $x2=0 $y2=0
79 X1/NET1:74 x1/x2/MN1:s 1.18271e-05 // $x=12.72 $y=2.48 $x2=0 $y2=0
80 X1/NET1:33 x1/x3/MP1:s 9.60888e-06 // $x=12.37 $y=6.745 $x2=0 $y2=0
81 x1/x2/MP1:s x1/x3/MP1:s 1.0705e-06 // $x=12.54 $y=2.605 $x2=0 $y2=0
82 x1/x3/MP0:s x1/x3/MP1:s 2.26908e-06 // $x=13.385 $y=5.015 $x2=0 $y2=0
83 X1/NET1:14 X1/X8/NET9:2 7.42871e-06 // $x=1.645 $y=2.02 $x2=2.725 $y2=2.93
84 X1/NET1:2 X1/X8/NET9:44 1.08036e-05 // $x=1.165 $y=3.01 $x2=0 $y2=0
85 X1/NET1:10 X1/X8/NET9:44 6.8311e-06 // $x=1.165 $y=3.14 $x2=0 $y2=0
86 X1/NET1:37 X1/X8/NET9:44 1.51316e-06 // $x=1.165 $y=3.14 $x2=0 $y2=0
87 X1/NET1:56 X1/X8/NET9:44 3.10353e-05 // $x=1.165 $y=3.14 $x2=0 $y2=0
88 X1/NET1:2 X1/X8/NET9:56 7.41434e-06 // $x=1.165 $y=3.01 $x2=0 $y2=0
89 X1/NET1:3 X1/X8/NET9:56 8.62842e-06 // $x=1.5 $y=2.02 $x2=0 $y2=0
90 X1/NET1:10 X1/X8/NET9:56 2.72462e-06 // $x=1.165 $y=3.14 $x2=0 $y2=0
91 X1/NET1:14 X1/X8/NET9:56 2.16044e-06 // $x=1.645 $y=2.02 $x2=0 $y2=0
92 X1/NET1:37 X1/X8/NET9:56 1.32843e-06 // $x=1.165 $y=3.14 $x2=0 $y2=0
93 X1/NET1:56 X1/X8/NET9:56 6.59215e-07 // $x=1.165 $y=3.14 $x2=0 $y2=0
94 x1/x8/MN13:d X1/X8/NET9:56 3.51182e-06 // $x=1.48 $y=1.735 $x2=0 $y2=0
95 X1/NET1:2 x1/x8/MP14:g 3.59995e-06 // $x=1.165 $y=3.01 $x2=0 $y2=0
96 X1/NET1:10 x1/x8/MP14:g 6.79778e-06 // $x=1.165 $y=3.14 $x2=0 $y2=0
97 X1/NET1:37 x1/x8/MP14:g 1.27551e-06 // $x=1.165 $y=3.14 $x2=0 $y2=0
98 X1/NET1:56 x1/x8/MP14:g 9.97449e-06 // $x=1.165 $y=3.14 $x2=0 $y2=0
99 X1/NET1:2 X1/X8/NET9:81 7.8441e-06 // $x=1.165 $y=3.01 $x2=0 $y2=0
100 X1/NET1:3 X1/X8/NET9:81 7.10229e-06 // $x=1.5 $y=2.02 $x2=0 $y2=0
101 X1/NET1:14 X1/X8/NET9:81 1.0962e-06 // $x=1.645 $y=2.02 $x2=0 $y2=0
102 x1/x8/MN13:d X1/X8/NET9:81 4.6145e-06 // $x=1.48 $y=1.735 $x2=0 $y2=0
103 X1/NET1:2 X1/X8/NET9:92 3.42045e-06 // $x=1.165 $y=3.01 $x2=0 $y2=0
104 X1/NET1:3 X1/X8/NET9:92 1.45578e-06 // $x=1.5 $y=2.02 $x2=0 $y2=0
105 X1/NET1:10 X1/X8/NET9:92 9.49632e-07 // $x=1.165 $y=3.14 $x2=0 $y2=0
106 X1/NET1:14 X1/X8/NET9:92 8.29626e-07 // $x=1.645 $y=2.02 $x2=0 $y2=0
107 X1/NET1:37 X1/X8/NET9:92 5.46406e-07 // $x=1.165 $y=3.14 $x2=0 $y2=0
108 X1/NET1:30 X1/X8/NET8:2 3.67414e-07 // $x=10.985 $y=1.375 $x2=2.725 $y2=2.93
109 X1/NET1:2 X1/X8/NET8:8 9.67422e-06 // $x=1.165 $y=3.01 $x2=2.605 $y2=2.02
110 X1/NET1:37 X1/X8/NET8:8 2.2699e-06 // $x=1.165 $y=3.14 $x2=2.605 $y2=2.02
111 X1/NET1:30 X1/X8/NET8:25 5.0786e-06 // $x=10.985 $y=1.375 $x2=0 $y2=0
112 X1/NET1:2 X1/X8/NET8:26 2.97078e-06 // $x=1.165 $y=3.01 $x2=2.605 $y2=2.02
113 X1/NET1:30 X1/X8/NET8:26 8.92262e-06 // $x=10.985 $y=1.375 $x2=2.605 $y2=2.02
114 X1/NET1:37 X1/X8/NET8:26 3.88752e-06 // $x=1.165 $y=3.14 $x2=2.605 $y2=2.02
115 X1/NET1:38 X1/X8/NET8:26 6.92016e-06 // $x=1.165 $y=2.955 $x2=2.605 $y2=2.02
116 X1/NET1:30 X1/X8/NET8:30 0.000207015 // $x=10.985 $y=1.375 $x2=2.845 $y2=3.42
117 X1/NET1:38 X1/X8/NET8:30 2.13022e-06 // $x=1.165 $y=2.955 $x2=2.845 $y2=3.42
118 X1/NET1:30 X1/X8/NET8:34 3.50427e-06 // $x=10.985 $y=1.375 $x2=0 $y2=0
119 X1/NET1:33 S1:3 1.30888e-05 // $x=12.37 $y=6.745 $x2=3.015 $y2=3
120 X1/NET1:7 S1:8 5.01032e-05 // $x=12.575 $y=2.48 $x2=2.605 $y2=2.02
121 X1/NET1:33 S1:8 1.31011e-05 // $x=12.37 $y=6.745 $x2=2.605 $y2=2.02
122 X1/NET1:33 S1:12 0.000135017 // $x=12.37 $y=6.745 $x2=2.845 $y2=3.42
123 X1/NET1:33 S1:14 2.20984e-05 // $x=12.37 $y=6.745 $x2=0 $y2=0
124 X1/NET1:7 S1:17 4.76013e-06 // $x=12.575 $y=2.48 $x2=0 $y2=0
125 X1/NET1:33 S1:17 2.14802e-05 // $x=12.37 $y=6.745 $x2=0 $y2=0
126 X1/NET1:6 S1:21 1.75126e-05 // $x=11.16 $y=2.395 $x2=0 $y2=0
127 X1/NET1:7 S1:21 1.26459e-05 // $x=12.575 $y=2.48 $x2=0 $y2=0
128 X1/NET1:17 S1:21 3.38013e-06 // $x=11.16 $y=1.635 $x2=0 $y2=0
129 X1/NET1:74 S1:21 1.98051e-06 // $x=12.72 $y=2.48 $x2=0 $y2=0
130 X1/NET1:84 S1:21 7.52389e-07 // $x=12.692 $y=2.805 $x2=0 $y2=0
131 X1/NET1:17 x1/x2/MN2:g 2.92347e-06 // $x=11.16 $y=1.635 $x2=0 $y2=0
132 X1/NET1:74 x1/x2/MN1:g 5.497e-06 // $x=12.72 $y=2.48 $x2=0 $y2=0
133 X1/NET1:7 x1/x2/MP2:g 8.57062e-06 // $x=12.575 $y=2.48 $x2=0 $y2=0
134 X1/NET1:7 S1:52 1.04866e-06 // $x=12.575 $y=2.48 $x2=0 $y2=0
135 X1/NET1:74 S1:52 1.31424e-05 // $x=12.72 $y=2.48 $x2=0 $y2=0
136 X1/NET1:33 S1:54 4.64756e-06 // $x=12.37 $y=6.745 $x2=0 $y2=0
137 x1/x2/MP1:s S1:54 3.25084e-06 // $x=12.54 $y=2.605 $x2=0 $y2=0
138 X1/NET1:33 S1:56 4.64756e-06 // $x=12.37 $y=6.745 $x2=0 $y2=0
139 X1/NET1:25 S1:58 6.87017e-07 // $x=13.525 $y=6.77 $x2=0 $y2=0
140 X1/NET1:35 S1:58 7.51686e-06 // $x=12.45 $y=6.83 $x2=0 $y2=0
141 x1/x3/MP0:s S1:58 3.61329e-05 // $x=13.385 $y=5.015 $x2=0 $y2=0
142 X1/NET1:21 S1:60 4.17502e-06 // $x=12.72 $y=2.48 $x2=0 $y2=0
143 X1/NET1:33 S1:60 7.81782e-07 // $x=12.37 $y=6.745 $x2=0 $y2=0
144 X1/NET1:74 S1:60 5.23999e-06 // $x=12.72 $y=2.48 $x2=0 $y2=0
145 x1/x2/MP1:s S1:60 1.62407e-05 // $x=12.54 $y=2.605 $x2=0 $y2=0
146 X1/NET1:33 S1:62 7.81782e-07 // $x=12.37 $y=6.745 $x2=0 $y2=0
147 X1/NET1:6 S1:74 3.14091e-06 // $x=11.16 $y=2.395 $x2=0 $y2=0
148 X1/NET1:7 S1:74 2.0504e-06 // $x=12.575 $y=2.48 $x2=0 $y2=0
149 X1/NET1:17 S1:74 3.4544e-06 // $x=11.16 $y=1.635 $x2=0 $y2=0
150 X1/NET1:35 GND:27 3.62987e-05 // $x=12.45 $y=6.83 $x2=2.605 $y2=2.02
151 x1/x3/MP0:s GND:27 2.15789e-06 // $x=13.385 $y=5.015 $x2=2.605 $y2=2.02
152 X1/NET1:30 GND:29 0.000696451 // $x=10.985 $y=1.375 $x2=2.845 $y2=3.335
153 X1/NET1:4 GND:30 3.44853e-05 // $x=1.235 $y=2.02 $x2=2.845 $y2=3.42
154 X1/NET1:10 GND:30 9.32297e-07 // $x=1.165 $y=3.14 $x2=2.845 $y2=3.42
155 X1/NET1:14 GND:30 3.32438e-05 // $x=1.645 $y=2.02 $x2=2.845 $y2=3.42
156 X1/NET1:30 GND:30 0.000141568 // $x=10.985 $y=1.375 $x2=2.845 $y2=3.42
157 X1/NET1:31 GND:30 2.51194e-05 // $x=1.205 $y=1.375 $x2=2.845 $y2=3.42
158 X1/NET1:37 GND:30 1.13726e-06 // $x=1.165 $y=3.14 $x2=2.845 $y2=3.42
159 X1/NET1:38 GND:30 3.59748e-05 // $x=1.165 $y=2.955 $x2=2.845 $y2=3.42
160 x1/x8/MN13:d GND:30 3.86055e-06 // $x=1.48 $y=1.735 $x2=2.845 $y2=3.42
161 X1/NET1:17 GND:46 1.38591e-05 // $x=11.16 $y=1.635 $x2=0 $y2=0
162 X1/NET1:30 GND:46 0.000115849 // $x=10.985 $y=1.375 $x2=0 $y2=0
163 X1/NET1:41 GND:46 5.29861e-06 // $x=11.155 $y=1.375 $x2=0 $y2=0
164 X1/NET1:17 GND:146 3.37826e-06 // $x=11.16 $y=1.635 $x2=0 $y2=0
165 X1/NET1:30 GND:146 1.96533e-05 // $x=10.985 $y=1.375 $x2=0 $y2=0
166 X1/NET1:41 GND:146 1.65245e-06 // $x=11.155 $y=1.375 $x2=0 $y2=0
167 X1/NET1:71 GND:146 5.01459e-06 // $x=12.72 $y=1.025 $x2=0 $y2=0
168 X1/NET1:3 GND:193 2.53094e-06 // $x=1.5 $y=2.02 $x2=0 $y2=0
169 X1/NET1:14 GND:193 1.11991e-06 // $x=1.645 $y=2.02 $x2=0 $y2=0
170 x1/x8/MN13:d GND:193 1.91475e-05 // $x=1.48 $y=1.735 $x2=0 $y2=0
171 X1/NET1:17 GND:202 2.69791e-06 // $x=11.16 $y=1.635 $x2=0 $y2=0
172 X1/NET1:71 GND:212 1.23452e-05 // $x=12.72 $y=1.025 $x2=0 $y2=0
173 x1/x3/MP0:s GND:216 1.12944e-05 // $x=13.385 $y=5.015 $x2=0 $y2=0
174 X1/NET1:71 GND:228 1.28014e-06 // $x=12.72 $y=1.025 $x2=0 $y2=0
175 x1/x3/MP0:s GND:230 1.33082e-06 // $x=13.385 $y=5.015 $x2=0 $y2=0
176 X1/NET1:17 GND:569 2.33711e-06 // $x=11.16 $y=1.635 $x2=0 $y2=0
177 X1/NET1:3 x1/x8/MN13:s 2.66703e-06 // $x=1.5 $y=2.02 $x2=0 $y2=0
178 X1/NET1:4 x1/x8/MN13:s 1.05564e-05 // $x=1.235 $y=2.02 $x2=0 $y2=0
179 X1/NET1:14 x1/x8/MN13:s 1.24941e-06 // $x=1.645 $y=2.02 $x2=0 $y2=0
180 X1/NET1:38 x1/x8/MN13:s 6.21175e-06 // $x=1.165 $y=2.955 $x2=0 $y2=0
181 X1/NET1:56 x1/x8/MN13:s 2.08428e-06 // $x=1.165 $y=3.14 $x2=0 $y2=0
182 x1/x8/MN13:d x1/x8/MN13:s 1.57343e-05 // $x=1.48 $y=1.735 $x2=0 $y2=0
183 X1/NET1:14 x1/x8/MN14:s 2.36828e-06 // $x=1.645 $y=2.02 $x2=0 $y2=0
184 x1/x8/MN13:d x1/x8/MN14:s 1.49255e-05 // $x=1.48 $y=1.735 $x2=0 $y2=0
185 x1/x3/MP0:s x1/x4/MN0:s 8.67204e-06 // $x=13.385 $y=5.015 $x2=0 $y2=0
186 X1/NET1:6 X1/NET5:2 5.64757e-07 // $x=11.16 $y=2.395 $x2=2.725 $y2=2.93
187 X1/NET1:17 X1/NET5:2 4.40073e-06 // $x=11.16 $y=1.635 $x2=2.725 $y2=2.93
188 X1/NET1:74 X1/NET5:2 2.11222e-05 // $x=12.72 $y=2.48 $x2=2.725 $y2=2.93
189 X1/NET1:21 X1/NET5:6 1.26288e-06 // $x=12.72 $y=2.48 $x2=3.085 $y2=3.305
190 X1/NET1:71 X1/NET5:8 7.76332e-06 // $x=12.72 $y=1.025 $x2=2.605 $y2=2.02
191 X1/NET1:21 X1/NET5:21 6.00472e-06 // $x=12.72 $y=2.48 $x2=0 $y2=0
192 X1/NET1:74 X1/NET5:21 7.03477e-05 // $x=12.72 $y=2.48 $x2=0 $y2=0
193 x1/x2/MP1:s X1/NET5:21 4.64484e-05 // $x=12.54 $y=2.605 $x2=0 $y2=0
194 X1/NET1:71 x1/x2/MN0:d 3.14465e-05 // $x=12.72 $y=1.025 $x2=0 $y2=0
195 X1/NET1:74 x1/x2/MN0:d 2.23572e-06 // $x=12.72 $y=2.48 $x2=0 $y2=0
196 X1/NET1:25 X1/NET4:1 4.06176e-06 // $x=13.525 $y=6.77 $x2=2.725 $y2=2.15
197 X1/NET1:49 X1/NET4:1 2.23456e-05 // $x=13.405 $y=6.817 $x2=2.725 $y2=2.15
198 x1/x3/MP0:s X1/NET4:1 2.47434e-06 // $x=13.385 $y=5.015 $x2=2.725 $y2=2.15
199 x1/x3/MP0:s X1/NET4:2 1.04872e-05 // $x=13.385 $y=5.015 $x2=2.725 $y2=2.93
200 X1/NET1:25 X1/NET4:3 4.7204e-05 // $x=13.525 $y=6.77 $x2=3.015 $y2=3
201 X1/NET1:48 X1/NET4:3 1.5137e-05 // $x=13.57 $y=6.815 $x2=3.015 $y2=3
202 X1/NET1:49 X1/NET4:3 5.91107e-06 // $x=13.405 $y=6.817 $x2=3.015 $y2=3
203 x1/x3/MP0:s X1/NET4:3 2.22668e-05 // $x=13.385 $y=5.015 $x2=3.015 $y2=3
204 x1/x3/MP0:s X1/NET4:5 9.414e-06 // $x=13.385 $y=5.015 $x2=3.085 $y2=3.07
205 X1/NET1:25 X1/NET4:6 8.20442e-06 // $x=13.525 $y=6.77 $x2=3.085 $y2=3.305
206 X1/NET1:48 X1/NET4:6 7.58234e-06 // $x=13.57 $y=6.815 $x2=3.085 $y2=3.305
207 x1/x3/MP0:s X1/NET4:6 1.50664e-06 // $x=13.385 $y=5.015 $x2=3.085 $y2=3.305
208 x1/x3/MP0:s X1/NET4:8 6.22523e-06 // $x=13.385 $y=5.015 $x2=2.605 $y2=2.02
209 x1/x3/MP0:s X1/NET4:22 2.76303e-05 // $x=13.385 $y=5.015 $x2=0 $y2=0
210 X1/NET1:25 X1/NET4:29 1.90477e-06 // $x=13.525 $y=6.77 $x2=2.845 $y2=3.335
211 x1/x3/MP0:s X1/NET4:29 1.683e-05 // $x=13.385 $y=5.015 $x2=2.845 $y2=3.335
212 x1/x3/MP0:s x1/x4/MP0:g 4.60507e-06 // $x=13.385 $y=5.015 $x2=0 $y2=0
213 x1/x3/MP0:s X1/NET4:45 1.09094e-05 // $x=13.385 $y=5.015 $x2=0 $y2=0
214 X1/NET1:25 x1/x3/MP1:d 9.40414e-06 // $x=13.525 $y=6.77 $x2=0 $y2=0
215 X1/NET1:49 x1/x3/MP1:d 7.75281e-06 // $x=13.405 $y=6.817 $x2=0 $y2=0
216 x1/x3/MP0:s x1/x3/MP1:d 0.000109815 // $x=13.385 $y=5.015 $x2=0 $y2=0
217 x1/x3/MP0:s X1/NET3:2 6.5906e-06 // $x=13.385 $y=5.015 $x2=2.725 $y2=2.93
218 x1/x3/MP0:s X1/NET3:8 2.05965e-06 // $x=13.385 $y=5.015 $x2=2.605 $y2=2.02
219 x1/x3/MP0:s X1/NET3:21 2.86844e-06 // $x=13.385 $y=5.015 $x2=0 $y2=0
220 x1/x3/MP0:s x1/x4/MP0:d 7.90026e-06 // $x=13.385 $y=5.015 $x2=0 $y2=0
221 X1/NET1:14 VDD:4 1.61975e-06 // $x=1.645 $y=2.02 $x2=2.795 $y2=3
222 X1/NET1:56 VDD:4 2.97665e-07 // $x=1.165 $y=3.14 $x2=2.795 $y2=3
223 X1/NET1:10 VDD:5 1.07331e-05 // $x=1.165 $y=3.14 $x2=3.085 $y2=3.07
224 X1/NET1:37 VDD:5 1.25259e-05 // $x=1.165 $y=3.14 $x2=3.085 $y2=3.07
225 X1/NET1:56 VDD:5 2.69825e-06 // $x=1.165 $y=3.14 $x2=3.085 $y2=3.07
226 X1/NET1:8 VDD:128 1.22878e-05 // $x=11.245 $y=2.48 $x2=0 $y2=0
227 X1/NET1:21 VDD:128 1.69163e-06 // $x=12.72 $y=2.48 $x2=0 $y2=0
228 X1/NET1:32 VDD:128 9.20302e-06 // $x=12.37 $y=2.565 $x2=0 $y2=0
229 X1/NET1:33 VDD:128 7.21437e-05 // $x=12.37 $y=6.745 $x2=0 $y2=0
230 x1/x2/MP1:s VDD:128 2.26613e-06 // $x=12.54 $y=2.605 $x2=0 $y2=0
231 x1/x3/MP0:s VDD:128 4.04097e-06 // $x=13.385 $y=5.015 $x2=0 $y2=0
232 X1/NET1:10 VDD:144 4.60977e-07 // $x=1.165 $y=3.14 $x2=0 $y2=0
233 X1/NET1:56 VDD:144 6.57731e-06 // $x=1.165 $y=3.14 $x2=0 $y2=0
234 x1/x2/MP1:s VDD:208 1.0652e-05 // $x=12.54 $y=2.605 $x2=0 $y2=0
235 x1/x3/MP0:s VDD:208 1.21602e-05 // $x=13.385 $y=5.015 $x2=0 $y2=0
236 X1/NET1:33 x1/x2/MP2:s 3.34546e-06 // $x=12.37 $y=6.745 $x2=0 $y2=0
237 X1/NET1:33 x1/x3/MP2:s 3.34546e-06 // $x=12.37 $y=6.745 $x2=0 $y2=0
238 x1/x3/MP0:s x1/x4/MP0:s 9.59213e-06 // $x=13.385 $y=5.015 $x2=0 $y2=0
239 X1/NET1:74 X1/X2/NSEL:6 1.42073e-05 // $x=12.72 $y=2.48 $x2=3.085 $y2=3.305
240 X1/NET1:17 X1/X2/NSEL:14 4.35558e-06 // $x=11.16 $y=1.635 $x2=0 $y2=0
241 X1/NET1:74 X1/X2/NSEL:14 2.68268e-05 // $x=12.72 $y=2.48 $x2=0 $y2=0
242 X1/NET1:7 X1/X2/NSEL:19 8.56844e-06 // $x=12.575 $y=2.48 $x2=0 $y2=0
243 X1/NET1:21 X1/X2/NSEL:19 7.05495e-07 // $x=12.72 $y=2.48 $x2=0 $y2=0
244 X1/NET1:32 X1/X2/NSEL:19 1.64918e-06 // $x=12.37 $y=2.565 $x2=0 $y2=0
245 X1/NET1:74 X1/X2/NSEL:19 2.70434e-05 // $x=12.72 $y=2.48 $x2=0 $y2=0
246 X1/NET1:71 x1/x2/MN0:g 1.20142e-05 // $x=12.72 $y=1.025 $x2=0 $y2=0
247 X1/NET1:71 X1/X2/NSEL:23 2.17852e-06 // $x=12.72 $y=1.025 $x2=2.605 $y2=1.92
248 X1/NET1:74 X1/X2/NSEL:23 1.34274e-05 // $x=12.72 $y=2.48 $x2=2.605 $y2=1.92
249 X1/NET1:7 X1/X2/NSEL:25 6.18647e-07 // $x=12.575 $y=2.48 $x2=0 $y2=0
250 X1/NET1:21 X1/X2/NSEL:25 2.93757e-06 // $x=12.72 $y=2.48 $x2=0 $y2=0
251 X1/NET1:74 X1/X2/NSEL:25 1.2931e-05 // $x=12.72 $y=2.48 $x2=0 $y2=0
252 X1/NET1:84 X1/X2/NSEL:25 1.64307e-06 // $x=12.692 $y=2.805 $x2=0 $y2=0
253 X1/NET1:74 X1/X2/NSEL:36 4.69871e-06 // $x=12.72 $y=2.48 $x2=0 $y2=0
254 X1/NET1:7 X1/X2/NSEL:40 2.00086e-06 // $x=12.575 $y=2.48 $x2=0 $y2=0
255 X1/NET1:74 X1/X2/NSEL:40 4.69028e-06 // $x=12.72 $y=2.48 $x2=0 $y2=0
256 X1/NET1:71 x1/x2/MN2:d 1.95242e-05 // $x=12.72 $y=1.025 $x2=0 $y2=0
257 X1/NET1:74 x1/x2/MN2:d 7.37731e-06 // $x=12.72 $y=2.48 $x2=0 $y2=0
258 X1/NET1:7 x1/x2/MP2:d 1.55045e-05 // $x=12.575 $y=2.48 $x2=0 $y2=0
259 X1/NET1:21 x1/x2/MP2:d 1.59399e-06 // $x=12.72 $y=2.48 $x2=0 $y2=0
260 X1/NET1:33 x1/x2/MP2:d 1.09385e-05 // $x=12.37 $y=6.745 $x2=0 $y2=0
261 X1/NET1:74 x1/x2/MP2:d 7.37574e-06 // $x=12.72 $y=2.48 $x2=0 $y2=0
262 X1/NET1:84 x1/x2/MP2:d 4.84647e-05 // $x=12.692 $y=2.805 $x2=0 $y2=0
263 X1/NET1:35 X1/X3/NSEL:6 1.21552e-06 // $x=12.45 $y=6.83 $x2=3.085 $y2=3.305
264 X1/NET1:33 X1/X3/NSEL:14 7.64518e-06 // $x=12.37 $y=6.745 $x2=0 $y2=0
265 X1/NET1:35 X1/X3/NSEL:14 1.96983e-06 // $x=12.45 $y=6.83 $x2=0 $y2=0
266 X1/NET1:49 X1/X3/NSEL:14 4.85865e-07 // $x=13.405 $y=6.817 $x2=0 $y2=0
267 X1/NET1:35 X1/X3/NSEL:19 3.61086e-06 // $x=12.45 $y=6.83 $x2=0 $y2=0
268 x1/x3/MP0:s X1/X3/NSEL:19 6.06614e-07 // $x=13.385 $y=5.015 $x2=0 $y2=0
269 x1/x3/MP0:s x1/x3/MP0:g 4.56646e-05 // $x=13.385 $y=5.015 $x2=0 $y2=0
270 X1/NET1:25 X1/X3/NSEL:23 4.89975e-06 // $x=13.525 $y=6.77 $x2=2.605 $y2=1.92
271 X1/NET1:49 X1/X3/NSEL:23 1.58259e-06 // $x=13.405 $y=6.817 $x2=2.605 $y2=1.92
272 X1/NET1:49 X1/X3/NSEL:36 7.2286e-07 // $x=13.405 $y=6.817 $x2=0 $y2=0
273 x1/x3/MP0:s x1/x3/MN2:d 4.36929e-07 // $x=13.385 $y=5.015 $x2=0 $y2=0
274 X1/NET1:33 x1/x3/MP2:d 1.41012e-05 // $x=12.37 $y=6.745 $x2=0 $y2=0
275 x1/x3/MP0:s 7.04409e-05 // $x=13.385 $y=5.015
276 x1/x2/MP1:s 1.33194e-05 // $x=12.54 $y=2.605
277 x1/x8/MN13:d 9.84459e-06 // $x=1.48 $y=1.735
278 X1/NET1:84 5.84605e-06 // $x=12.692 $y=2.805
279 X1/NET1:74 1.39157e-05 // $x=12.72 $y=2.48
280 X1/NET1:71 8.73543e-06 // $x=12.72 $y=1.025
281 X1/NET1:56 1.79099e-05 // $x=1.165 $y=3.14
282 X1/NET1:49 2.65389e-05 // $x=13.405 $y=6.817
283 X1/NET1:48 3.25324e-06 // $x=13.57 $y=6.815
284 X1/NET1:41 6.60495e-06 // $x=11.155 $y=1.375
285 X1/NET1:38 4.20192e-05 // $x=1.165 $y=2.955
286 X1/NET1:37 5.65392e-05 // $x=1.165 $y=3.14
287 X1/NET1:35 6.14807e-06 // $x=12.45 $y=6.83
288 X1/NET1:33 5.10708e-05 // $x=12.37 $y=6.745
289 X1/NET1:32 8.60141e-06 // $x=12.37 $y=2.565
290 X1/NET1:31 5.35189e-06 // $x=1.205 $y=1.375
291 X1/NET1:30 0.000105326 // $x=10.985 $y=1.375
292 X1/NET1:25 1.45268e-05 // $x=13.525 $y=6.77
293 X1/NET1:21 8.08312e-06 // $x=12.72 $y=2.48
294 X1/NET1:17 1.51087e-05 // $x=11.16 $y=1.635
295 X1/NET1:14 1.01435e-05 // $x=1.645 $y=2.02
296 X1/NET1:10 1.10617e-05 // $x=1.165 $y=3.14
297 X1/NET1:8 6.41708e-06 // $x=11.245 $y=2.48
298 X1/NET1:7 2.92347e-05 // $x=12.575 $y=2.48
299 X1/NET1:6 1.68946e-05 // $x=11.16 $y=2.395
300 X1/NET1:4 2.11912e-06 // $x=1.235 $y=2.02
301 X1/NET1:3 1.23314e-06 // $x=1.5 $y=2.02
302 X1/NET1:2 2.73612e-05 // $x=1.165 $y=3.01

*RES
303 X1/NET1:84 x1/x2/MP1:s 33.5401 // $w=0.187 $lvl=li $x=12.665 $y=2.805 $x2=12.665 $y2=3.295 $l=0.49
304 X1/NET1:83 X1/NET1:84 8.97593 // $w=0.242 $lvl=li $x=12.692 $y=2.635 $x2=12.692 $y2=2.805 $l=0.17
305 X1/NET1:79 x1/x3/MN1:s 92.7487 // $w=0.187 $lvl=li $x=13.525 $y=6.77 $x2=13.525 $y2=8.125 $l=1.355
306 X1/NET1:79 x1/x3/MP0:s 81.1123 // $w=0.187 $lvl=li $x=13.525 $y=6.77 $x2=13.525 $y2=5.585 $l=1.185
307 X1/NET1:74 X1/NET1:83 10.6096 // $w=0.187 $lvl=li $x=12.72 $y=2.48 $x2=12.72 $y2=2.635 $l=0.155
308 X1/NET1:71 x1/x2/MN0:s 18.2793 // $w=0.191 $lvl=li $x=12.72 $y=1.025 $x2=12.692 $y2=0.755 $l=0.283655
309 X1/NET1:71 X1/NET1:74 99.5936 // $w=0.187 $lvl=li $x=12.72 $y=1.025 $x2=12.72 $y2=2.48 $l=1.455
310 X1/NET1:65 x1/x8/MN13:d 6.84492 // $w=0.187 $lvl=li $x=1.645 $y=2.02 $x2=1.645 $y2=1.92 $l=0.1
311 X1/NET1:56 x1/x8/MP14:d 11.6364 // $w=0.187 $lvl=li $x=1.165 $y=3.14 $x2=1.165 $y2=3.31 $l=0.17
312 X1/NET1:48 X1/NET1:49 0.109481 // $w=0.286 $lvl=m2 $x=13.57 $y=6.817 $x2=13.405 $y2=6.817 $l=0.165
313 X1/NET1:41 X1/NET1:43 0.103834 // $w=0.313 $lvl=m2 $x=11.155 $y=1.375 $x2=11.155 $y2=1.635 $l=0.26
314 X1/NET1:37 X1/NET1:38 0.122036 // $w=0.241 $lvl=m2 $x=1.165 $y=3.14 $x2=1.165 $y2=2.955 $l=0.185
315 X1/NET1:35 X1/NET1:49 0.91126 // $w=0.131 $lvl=m2 $x=12.45 $y=6.83 $x2=13.405 $y2=6.83 $l=0.955
316 X1/NET1:33 X1/NET1:35 0.0699246 // $w=0.17 $lvl=m2 $x=12.37 $y=6.745 $x2=12.45 $y2=6.83 $l=0.118427
317 X1/NET1:32 X1/NET1:46 0.200711 // $w=0.246 $lvl=m2 $x=12.37 $y=2.525 $x2=12.765 $y2=2.525 $l=0.395
318 X1/NET1:32 X1/NET1:33 4.31818 // $w=0.121 $lvl=m2 $x=12.37 $y=2.565 $x2=12.37 $y2=6.745 $l=4.18
319 X1/NET1:30 X1/NET1:41 0.0441684 // $w=0.313 $lvl=m2 $x=10.985 $y=1.375 $x2=11.155 $y2=1.375 $l=0.17
320 X1/NET1:30 X1/NET1:31 9.33206 // $w=0.131 $lvl=m2 $x=10.985 $y=1.375 $x2=1.205 $y2=1.375 $l=9.78
321 X1/NET1:28 X1/NET1:31 0.0698411 // $w=0.17 $lvl=m2 $x=1.12 $y=1.46 $x2=1.205 $y2=1.375 $l=0.120208
322 X1/NET1:28 X1/NET1:38 1.42653 // $w=0.131 $lvl=m2 $x=1.12 $y=1.46 $x2=1.12 $y2=2.955 $l=1.495
323 X1/NET1:27 X1/NET1:48 4.5 // $w=0.15 $lvl=via1 $x=13.57 $y=6.815 $x2=13.57 $y2=6.815 $l=0.15 $count=1
324 X1/NET1:25 X1/NET1:79 9.3 // $w=0.17 $lvl=mcon $x=13.525 $y=6.77 $x2=13.525 $y2=6.77 $l=0.17 $count=1
325 X1/NET1:25 X1/NET1:27 0.0208333 // $w=0.27 $lvl=m1 $x=13.525 $y=6.817 $x2=13.57 $y2=6.817 $l=0.045
326 X1/NET1:23 X1/NET1:46 4.5 // $w=0.15 $lvl=via1 $x=12.765 $y=2.525 $x2=12.765 $y2=2.525 $l=0.15 $count=1
327 X1/NET1:21 X1/NET1:74 9.3 // $w=0.17 $lvl=mcon $x=12.72 $y=2.48 $x2=12.72 $y2=2.48 $l=0.17 $count=1
328 X1/NET1:21 X1/NET1:23 0.0179712 // $w=0.313 $lvl=m1 $x=12.72 $y=2.525 $x2=12.765 $y2=2.525 $l=0.045
329 X1/NET1:17 X1/NET1:43 4.5 // $w=0.15 $lvl=via1 $x=11.16 $y=1.635 $x2=11.16 $y2=1.635 $l=0.15 $count=1
330 X1/NET1:17 X1/NET1:19 0.113561 // $w=0.301 $lvl=m1 $x=11.155 $y=1.635 $x2=11.155 $y2=1.81 $l=0.175
331 X1/NET1:14 X1/NET1:65 9.3 // $w=0.17 $lvl=mcon $x=1.645 $y=2.02 $x2=1.645 $y2=2.02 $l=0.17 $count=1
332 X1/NET1:10 X1/NET1:56 9.3 // $w=0.17 $lvl=mcon $x=1.165 $y=3.14 $x2=1.165 $y2=3.14 $l=0.17 $count=1
333 X1/NET1:10 X1/NET1:37 4.5 // $w=0.15 $lvl=via1 $x=1.165 $y=3.14 $x2=1.165 $y2=3.14 $l=0.15 $count=1
334 X1/NET1:7 X1/NET1:21 0.0838195 // $w=0.313 $lvl=m1 $x=12.575 $y=2.48 $x2=12.72 $y2=2.525 $l=0.165982
335 X1/NET1:7 X1/NET1:8 1.26908 // $w=0.131 $lvl=m1 $x=12.575 $y=2.48 $x2=11.245 $y2=2.48 $l=1.33
336 X1/NET1:6 X1/NET1:8 0.0698411 // $w=0.17 $lvl=m1 $x=11.16 $y=2.395 $x2=11.245 $y2=2.48 $l=0.120208
337 X1/NET1:6 X1/NET1:19 0.558206 // $w=0.131 $lvl=m1 $x=11.16 $y=2.395 $x2=11.16 $y2=1.81 $l=0.585
338 X1/NET1:3 X1/NET1:14 0.123138 // $w=0.191 $lvl=m1 $x=1.5 $y=2.02 $x2=1.645 $y2=2.02 $l=0.145
339 X1/NET1:3 X1/NET1:4 0.32797 // $w=0.101 $lvl=m1 $x=1.5 $y=2.02 $x2=1.235 $y2=2.02 $l=0.265
340 X1/NET1:2 X1/NET1:10 0.112452 // $w=0.281 $lvl=m1 $x=1.165 $y=3.01 $x2=1.165 $y2=3.14 $l=0.13
341 X1/NET1:1 X1/NET1:4 0.0698411 // $w=0.14 $lvl=m1 $x=1.165 $y=2.09 $x2=1.235 $y2=2.02 $l=0.0989949
342 X1/NET1:1 X1/NET1:2 1.13861 // $w=0.101 $lvl=m1 $x=1.165 $y=2.09 $x2=1.165 $y2=3.01 $l=0.92
343 x1/x8/MN14:d x1/x8/MN13:d 0.01 // $x=1.48 $y=1.735 $x2=1.48 $y2=1.735 $l=0

*END

*D_NET X1/NET8 0.00088326
*CONN
*I x1/x8/MN12:d B 
*I x1/x8/MN11:d B 
*I x1/x8/MP12:d B 

*CAP
0 X1/NET8:2 X1/NET1:2 9.58135e-06 // $x=2.725 $y=2.93 $x2=1.165 $y2=3.01
1 X1/NET8:2 X1/NET1:37 2.24843e-06 // $x=2.725 $y=2.93 $x2=1.165 $y2=3.14
2 X1/NET8:8 X1/NET1:2 5.65795e-06 // $x=2.605 $y=2.02 $x2=1.165 $y2=3.01
3 X1/NET8:8 X1/NET1:14 1.99697e-05 // $x=2.605 $y=2.02 $x2=1.645 $y2=2.02
4 X1/NET8:8 X1/NET1:30 2.39346e-05 // $x=2.605 $y=2.02 $x2=10.985 $y2=1.375
5 X1/NET8:8 X1/NET1:37 1.72986e-06 // $x=2.605 $y=2.02 $x2=1.165 $y2=3.14
6 X1/NET8:8 X1/NET1:38 1.99178e-05 // $x=2.605 $y=2.02 $x2=1.165 $y2=2.955
7 X1/NET8:8 x1/x8/MN13:d 3.24273e-07 // $x=2.605 $y=2.02 $x2=1.48 $y2=1.735
8 x1/x8/MN12:d X1/NET1:14 3.12159e-07 // $x=2.44 $y=1.735 $x2=1.645 $y2=2.02
9 x1/x8/MN12:d x1/x8/MN13:d 1.42367e-06 // $x=2.44 $y=1.735 $x2=1.48 $y2=1.735
10 X1/NET8:2 X1/NET10:2 4.56509e-06 // $x=2.725 $y=2.93 $x2=1.165 $y2=3.01
11 x1/x8/MN12:d X1/NET10:2 2.36458e-07 // $x=2.44 $y=1.735 $x2=1.165 $y2=3.01
12 X1/NET8:2 X1/NET10:4 4.06207e-06 // $x=2.725 $y=2.93 $x2=1.235 $y2=2.02
13 X1/NET8:3 X1/NET10:4 7.18668e-06 // $x=3.015 $y=3 $x2=1.235 $y2=2.02
14 X1/NET8:8 X1/NET10:6 4.56509e-06 // $x=2.605 $y=2.02 $x2=11.16 $y2=2.395
15 x1/x8/MN12:d X1/NET10:6 2.41492e-07 // $x=2.44 $y=1.735 $x2=11.16 $y2=2.395
16 X1/NET8:2 X1/NET10:10 6.38394e-06 // $x=2.725 $y=2.93 $x2=1.165 $y2=3.14
17 X1/NET8:3 X1/NET10:10 3.69064e-06 // $x=3.015 $y=3 $x2=1.165 $y2=3.14
18 X1/NET8:8 X1/NET10:10 1.73747e-05 // $x=2.605 $y=2.02 $x2=1.165 $y2=3.14
19 X1/NET8:2 X1/NET10:11 2.87952e-05 // $x=2.725 $y=2.93 $x2=1.165 $y2=3.14
20 X1/NET8:3 X1/NET10:11 1.60589e-05 // $x=3.015 $y=3 $x2=1.165 $y2=3.14
21 X1/NET8:3 X1/NET10:13 2.05648e-05 // $x=3.015 $y=3 $x2=1.645 $y2=2.02
22 X1/NET8:30 X1/NET10:13 9.50141e-07 // $x=2.845 $y=3.42 $x2=1.645 $y2=2.02
23 X1/NET8:8 X1/NET10:16 1.06096e-06 // $x=2.605 $y=2.02 $x2=11.155 $y2=1.635
24 X1/NET8:3 X1/NET10:27 9.40792e-07 // $x=3.015 $y=3 $x2=13.57 $y2=6.815
25 X1/NET8:6 X1/NET10:27 9.25178e-07 // $x=3.085 $y=3.305 $x2=13.57 $y2=6.815
26 X1/NET8:30 X1/NET10:27 1.74466e-05 // $x=2.845 $y=3.42 $x2=13.57 $y2=6.815
27 X1/NET8:2 X1/NET10:39 1.22293e-05 // $x=2.725 $y=2.93 $x2=1.165 $y2=3.14
28 X1/NET8:3 X1/NET10:39 9.16529e-06 // $x=3.015 $y=3 $x2=1.165 $y2=3.14
29 X1/NET8:30 X1/NET10:39 1.3641e-05 // $x=2.845 $y=3.42 $x2=1.165 $y2=3.14
30 x1/x8/MN12:d X1/NET10:39 3.66077e-07 // $x=2.44 $y=1.735 $x2=1.165 $y2=3.14
31 X1/NET8:2 x1/x8/MP12:g 1.04407e-06 // $x=2.725 $y=2.93 $x2=11.16 $y2=1.635
32 X1/NET8:3 x1/x8/MP12:g 3.77931e-06 // $x=3.015 $y=3 $x2=11.16 $y2=1.635
33 X1/NET8:4 x1/x8/MP12:g 6.92485e-07 // $x=2.795 $y=3 $x2=11.16 $y2=1.635
34 X1/NET8:6 x1/x8/MP12:g 7.68168e-07 // $x=3.085 $y=3.305 $x2=11.16 $y2=1.635
35 X1/NET8:12 x1/x8/MP12:g 2.9525e-06 // $x=2.845 $y=3.42 $x2=11.16 $y2=1.635
36 X1/NET8:30 x1/x8/MP12:g 2.07847e-05 // $x=2.845 $y=3.42 $x2=11.16 $y2=1.635
37 X1/NET8:2 X1/NET10:44 3.32102e-06 // $x=2.725 $y=2.93 $x2=12.37 $y2=2.525
38 X1/NET8:8 X1/NET10:44 3.50769e-06 // $x=2.605 $y=2.02 $x2=12.37 $y2=2.525
39 x1/x8/MN12:d X1/NET10:44 4.55447e-06 // $x=2.44 $y=1.735 $x2=12.37 $y2=2.525
40 X1/NET8:2 X1/NET10:50 3.22226e-06 // $x=2.725 $y=2.93 $x2=0 $y2=0
41 X1/NET8:3 X1/NET10:50 1.07233e-06 // $x=3.015 $y=3 $x2=0 $y2=0
42 X1/NET8:30 X1/NET10:50 1.757e-06 // $x=2.845 $y=3.42 $x2=0 $y2=0
43 X1/NET8:8 x1/x8/MN9:d 2.24498e-07 // $x=2.605 $y=2.02 $x2=0 $y2=0
44 X1/NET8:8 X1/NET9:6 8.12278e-06 // $x=2.605 $y=2.02 $x2=11.16 $y2=2.395
45 X1/NET8:4 X1/NET6:2 8.86259e-06 // $x=2.795 $y=3 $x2=1.165 $y2=3.01
46 X1/NET8:6 X1/NET6:2 1.05661e-05 // $x=3.085 $y=3.305 $x2=1.165 $y2=3.01
47 X1/NET8:30 X1/NET6:2 2.95051e-06 // $x=2.845 $y=3.42 $x2=1.165 $y2=3.01
48 X1/NET8:12 X1/NET6:14 7.81567e-06 // $x=2.845 $y=3.42 $x2=1.645 $y2=2.02
49 X1/NET8:4 X1/NET6:25 2.45536e-06 // $x=2.795 $y=3 $x2=13.525 $y2=6.77
50 X1/NET8:6 X1/NET6:25 4.05681e-06 // $x=3.085 $y=3.305 $x2=13.525 $y2=6.77
51 X1/NET8:12 X1/NET6:25 9.27537e-07 // $x=2.845 $y=3.42 $x2=13.525 $y2=6.77
52 X1/NET8:30 X1/NET6:25 6.13885e-07 // $x=2.845 $y=3.42 $x2=13.525 $y2=6.77