*SPEF "2.0"
*DESIGN "SKY130_OSU_RING_OSCILLATOR_MPR2EA_8_B0R2"
*DATE "Thu Nov  2 18:09:25 2023"
*VENDOR "Mentor Graphics Corp."
*PROGRAM "Calibre xRC"
*VERSION "v2023.2_27.15"
*DESIGN_FLOW "extraction"
*DIVIDER /
*DELIMITER :
*BUS_DELIMITER []
*T_UNIT 1 NS
*C_UNIT 1 PF
*R_UNIT 1 OHM
*L_UNIT 1 HENRY



// CIRCUIT TEMPERATURE 30C
// NOMINAL TEMPERATURE 30C

*PORTS 
 X5_Y1 B
 VDD B
 X4_Y1 B
 X3_Y1 B
 X2_Y1 B
 X1_Y1 B
 S5 B
 S4 B
 S3 B
 S2 B
 S1 B
 GND B

*D_NET X1/NET1 0.00474323
*CONN
*I x1/x1/MN13:d B 
*I x1/x1/MN14:d B 
*I x1/x2/MN0:s B 
*I x1/x3/MN1:s B 
*I x1/x1/MP14:d B 
*I x1/x2/MP1:s B 
*I x1/x3/MP0:s B 

*CAP
0 X1/NET1:2 X1/NET8:2 5.95941e-06 // $x=0.68 $y=3.01 $x2=2.24 $y2=2.93
1 X1/NET1:31 X1/NET8:2 3.19228e-06 // $x=0.68 $y=2.955 $x2=2.24 $y2=2.93
2 X1/NET1:41 X1/NET8:2 2.24843e-06 // $x=0.68 $y=3.14 $x2=2.24 $y2=2.93
3 X1/NET1:2 X1/NET8:8 3.26833e-07 // $x=0.68 $y=3.01 $x2=2.12 $y2=2.02
4 X1/NET1:14 X1/NET8:8 1.98781e-05 // $x=1.16 $y=2.02 $x2=2.12 $y2=2.02
5 X1/NET1:31 X1/NET8:8 2.17405e-05 // $x=0.68 $y=2.955 $x2=2.12 $y2=2.02
6 X1/NET1:32 X1/NET8:8 2.91472e-05 // $x=10.5 $y=1.375 $x2=2.12 $y2=2.02
7 X1/NET1:41 X1/NET8:8 1.72956e-06 // $x=0.68 $y=3.14 $x2=2.12 $y2=2.02
8 x1/x1/MN13:d X1/NET8:8 3.24273e-07 // $x=0.995 $y=1.735 $x2=2.12 $y2=2.02
9 X1/NET1:14 x1/x1/MN12:d 3.12159e-07 // $x=1.16 $y=2.02 $x2=1.955 $y2=1.735
10 x1/x1/MN13:d x1/x1/MN12:d 1.42231e-06 // $x=0.995 $y=1.735 $x2=1.955 $y2=1.735
11 X1/NET1:14 X1/NET9:2 2.59221e-07 // $x=1.16 $y=2.02 $x2=2.24 $y2=2.93
12 X1/NET1:31 X1/NET9:10 2.05824e-06 // $x=0.68 $y=2.955 $x2=2.24 $y2=2.02
13 X1/NET1:41 X1/NET9:10 1.83592e-05 // $x=0.68 $y=3.14 $x2=2.24 $y2=2.02
14 X1/NET1:6 X1/X1/NET6:17 8.29865e-07 // $x=10.675 $y=2.025 $x2=0 $y2=0
15 X1/NET1:41 X1/X1/NET6:40 4.64186e-06 // $x=0.68 $y=3.14 $x2=0 $y2=0
16 X1/NET1:10 X1/NET7:2 1.35008e-05 // $x=0.68 $y=3.14 $x2=2.24 $y2=2.93
17 X1/NET1:41 X1/NET7:2 6.05513e-07 // $x=0.68 $y=3.14 $x2=2.24 $y2=2.93
18 X1/NET1:63 X1/NET7:2 3.26551e-07 // $x=0.68 $y=3.14 $x2=2.24 $y2=2.93
19 X1/NET1:32 X1/NET7:20 5.09411e-06 // $x=10.5 $y=1.375 $x2=0 $y2=0
20 X1/NET1:10 X1/NET7:25 3.53199e-06 // $x=0.68 $y=3.14 $x2=0 $y2=0
21 X1/NET1:32 X1/NET7:25 2.80786e-06 // $x=10.5 $y=1.375 $x2=0 $y2=0
22 X1/NET1:41 X1/NET7:25 2.62575e-05 // $x=0.68 $y=3.14 $x2=0 $y2=0
23 X1/NET1:2 X1/NET7:45 2.41136e-06 // $x=0.68 $y=3.01 $x2=0 $y2=0
24 X1/NET1:31 X1/NET7:45 1.60037e-06 // $x=0.68 $y=2.955 $x2=0 $y2=0
25 X1/NET1:14 X1/NET7:65 2.31402e-06 // $x=1.16 $y=2.02 $x2=0 $y2=0
26 x1/x1/MN13:d X1/NET7:65 3.33284e-06 // $x=0.995 $y=1.735 $x2=0 $y2=0
27 X1/NET1:14 X1/NET7:71 8.28967e-07 // $x=1.16 $y=2.02 $x2=0 $y2=0
28 X1/NET1:32 X1/NET4:40 4.96544e-06 // $x=10.5 $y=1.375 $x2=0 $y2=0
29 X1/NET1:32 X1/NET4:47 0.00023742 // $x=10.5 $y=1.375 $x2=0 $y2=0
30 X1/NET1:44 X1/NET4:55 1.37108e-06 // $x=10.67 $y=1.375 $x2=0 $y2=0
31 X1/NET1:55 X1/NET4:58 2.92353e-07 // $x=13.07 $y=2.14 $x2=0 $y2=0
32 X1/NET1:32 X1/NET4:59 1.69024e-05 // $x=10.5 $y=1.375 $x2=0 $y2=0
33 X1/NET1:32 X1/NET4:66 8.06265e-07 // $x=10.5 $y=1.375 $x2=0 $y2=0
34 X1/NET1:32 X1/NET4:70 4.21301e-07 // $x=10.5 $y=1.375 $x2=0 $y2=0
35 X1/NET1:32 X1/NET4:76 1.18977e-05 // $x=10.5 $y=1.375 $x2=0 $y2=0
36 X1/NET1:55 X1/NET4:76 9.08797e-07 // $x=13.07 $y=2.14 $x2=0 $y2=0
37 X1/NET1:32 X1/NET4:78 4.22805e-06 // $x=10.5 $y=1.375 $x2=0 $y2=0
38 X1/NET1:32 X1/NET4:80 1.66432e-05 // $x=10.5 $y=1.375 $x2=0 $y2=0
39 X1/NET1:32 X1/NET4:82 7.70431e-06 // $x=10.5 $y=1.375 $x2=0 $y2=0
40 X1/NET1:32 X1/NET4:86 9.12832e-06 // $x=10.5 $y=1.375 $x2=0 $y2=0
41 X1/NET1:32 X1/NET4:88 1.22851e-05 // $x=10.5 $y=1.375 $x2=0 $y2=0
42 X1/NET1:32 X1/NET4:95 1.23324e-05 // $x=10.5 $y=1.375 $x2=0 $y2=0
43 X1/NET1:32 X1/NET4:100 7.83231e-06 // $x=10.5 $y=1.375 $x2=0 $y2=0
44 X1/NET1:32 GND:8 0.000881235 // $x=10.5 $y=1.375 $x2=2.12 $y2=2.02
45 x1/x1/MN13:d GND:8 2.20618e-06 // $x=0.995 $y=1.735 $x2=2.12 $y2=2.02
46 X1/NET1:4 GND:9 3.37112e-05 // $x=0.75 $y=2.02 $x2=2.12 $y2=2.02
47 X1/NET1:10 GND:9 1.27886e-06 // $x=0.68 $y=3.14 $x2=2.12 $y2=2.02
48 X1/NET1:14 GND:9 3.32016e-05 // $x=1.16 $y=2.02 $x2=2.12 $y2=2.02
49 X1/NET1:31 GND:9 3.48381e-05 // $x=0.68 $y=2.955 $x2=2.12 $y2=2.02
50 X1/NET1:32 GND:9 4.2387e-05 // $x=10.5 $y=1.375 $x2=2.12 $y2=2.02
51 X1/NET1:33 GND:9 2.51194e-05 // $x=0.765 $y=1.375 $x2=2.12 $y2=2.02
52 X1/NET1:41 GND:9 2.67465e-06 // $x=0.68 $y=3.14 $x2=2.12 $y2=2.02
53 x1/x1/MN13:d GND:9 3.8554e-06 // $x=0.995 $y=1.735 $x2=2.12 $y2=2.02
54 X1/NET1:79 GND:30 2.86039e-06 // $x=12.235 $y=7.855 $x2=2.36 $y2=3.42
55 X1/NET1:6 GND:45 1.80668e-05 // $x=10.675 $y=2.025 $x2=0 $y2=0
56 X1/NET1:28 GND:45 7.00278e-07 // $x=13.07 $y=2.14 $x2=0 $y2=0
57 X1/NET1:39 GND:45 3.44825e-07 // $x=13.037 $y=5.695 $x2=0 $y2=0
58 X1/NET1:55 GND:45 5.757e-07 // $x=13.07 $y=2.14 $x2=0 $y2=0
59 X1/NET1:17 GND:241 2.01054e-05 // $x=10.675 $y=1.635 $x2=0 $y2=0
60 X1/NET1:32 GND:241 3.16924e-05 // $x=10.5 $y=1.375 $x2=0 $y2=0
61 X1/NET1:44 GND:241 6.44011e-06 // $x=10.67 $y=1.375 $x2=0 $y2=0
62 X1/NET1:17 GND:244 3.35468e-06 // $x=10.675 $y=1.635 $x2=0 $y2=0
63 X1/NET1:26 GND:244 1.78968e-05 // $x=12.895 $y=2.14 $x2=0 $y2=0
64 X1/NET1:32 GND:244 1.84902e-05 // $x=10.5 $y=1.375 $x2=0 $y2=0
65 X1/NET1:44 GND:244 1.65245e-06 // $x=10.67 $y=1.375 $x2=0 $y2=0
66 x1/x3/MN1:s GND:244 2.18283e-06 // $x=12.9 $y=0.575 $x2=0 $y2=0
67 X1/NET1:3 GND:385 9.25178e-07 // $x=1.015 $y=2.02 $x2=0 $y2=0
68 X1/NET1:14 GND:385 1.11991e-06 // $x=1.16 $y=2.02 $x2=0 $y2=0
69 x1/x1/MN13:d GND:385 1.92045e-05 // $x=0.995 $y=1.735 $x2=0 $y2=0
70 X1/NET1:17 GND:394 2.61913e-06 // $x=10.675 $y=1.635 $x2=0 $y2=0
71 x1/x3/MN1:s GND:404 1.1298e-05 // $x=12.9 $y=0.575 $x2=0 $y2=0
72 X1/NET1:79 GND:408 1.21387e-05 // $x=12.235 $y=7.855 $x2=0 $y2=0
73 x1/x3/MN1:s GND:420 1.33082e-06 // $x=12.9 $y=0.575 $x2=0 $y2=0
74 X1/NET1:79 GND:422 1.28014e-06 // $x=12.235 $y=7.855 $x2=0 $y2=0
75 X1/NET1:17 GND:842 1.44669e-06 // $x=10.675 $y=1.635 $x2=0 $y2=0
76 X1/NET1:3 x1/x1/MN13:s 2.61863e-06 // $x=1.015 $y=2.02 $x2=0 $y2=0
77 X1/NET1:4 x1/x1/MN13:s 1.04777e-05 // $x=0.75 $y=2.02 $x2=0 $y2=0
78 X1/NET1:14 x1/x1/MN13:s 1.19536e-06 // $x=1.16 $y=2.02 $x2=0 $y2=0
79 X1/NET1:31 x1/x1/MN13:s 4.52493e-06 // $x=0.68 $y=2.955 $x2=0 $y2=0
80 X1/NET1:63 x1/x1/MN13:s 2.05187e-06 // $x=0.68 $y=3.14 $x2=0 $y2=0
81 x1/x1/MN13:d x1/x1/MN13:s 1.64198e-05 // $x=0.995 $y=1.735 $x2=0 $y2=0
82 X1/NET1:14 x1/x1/MN14:s 2.40313e-06 // $x=1.16 $y=2.02 $x2=0 $y2=0
83 x1/x1/MN13:d x1/x1/MN14:s 1.49181e-05 // $x=0.995 $y=1.735 $x2=0 $y2=0
84 X1/NET1:26 x1/x3/MN2:s 1.11049e-06 // $x=12.895 $y=2.14 $x2=0 $y2=0
85 X1/NET1:79 x1/x2/MN2:s 1.87278e-06 // $x=12.235 $y=7.855 $x2=0 $y2=0
86 x1/x3/MN1:s x1/x4/MN0:s 8.67204e-06 // $x=12.9 $y=0.575 $x2=0 $y2=0
87 X1/NET1:39 X2/NET1:10 2.4612e-06 // $x=13.037 $y=5.695 $x2=2.24 $y2=2.02
88 X1/NET1:39 X2/NET1:31 2.89902e-06 // $x=13.037 $y=5.695 $x2=2.6 $y2=3.335
89 X1/NET1:55 X2/NET1:31 2.05396e-06 // $x=13.07 $y=2.14 $x2=2.6 $y2=3.335
90 X1/NET1:39 X2/NET1:41 1.38333e-06 // $x=13.037 $y=5.695 $x2=0 $y2=0
91 X1/NET1:39 X2/NET7:14 3.77046e-06 // $x=13.037 $y=5.695 $x2=0 $y2=0
92 X1/NET1:14 X1/X1/NET9:2 7.18999e-06 // $x=1.16 $y=2.02 $x2=2.24 $y2=2.93
93 X1/NET1:2 X1/X1/NET9:44 1.03832e-05 // $x=0.68 $y=3.01 $x2=0 $y2=0
94 X1/NET1:10 X1/X1/NET9:44 6.8311e-06 // $x=0.68 $y=3.14 $x2=0 $y2=0
95 X1/NET1:31 X1/X1/NET9:44 5.06388e-06 // $x=0.68 $y=2.955 $x2=0 $y2=0
96 X1/NET1:41 X1/X1/NET9:44 1.51316e-06 // $x=0.68 $y=3.14 $x2=0 $y2=0
97 X1/NET1:63 X1/X1/NET9:44 3.04776e-05 // $x=0.68 $y=3.14 $x2=0 $y2=0
98 X1/NET1:2 X1/X1/NET9:56 6.17655e-06 // $x=0.68 $y=3.01 $x2=0 $y2=0
99 X1/NET1:3 X1/X1/NET9:56 6.32295e-06 // $x=1.015 $y=2.02 $x2=0 $y2=0
100 X1/NET1:10 X1/X1/NET9:56 1.79043e-06 // $x=0.68 $y=3.14 $x2=0 $y2=0
101 X1/NET1:14 X1/X1/NET9:56 2.16044e-06 // $x=1.16 $y=2.02 $x2=0 $y2=0
102 X1/NET1:31 X1/X1/NET9:56 3.78689e-06 // $x=0.68 $y=2.955 $x2=0 $y2=0
103 X1/NET1:41 X1/X1/NET9:56 1.39033e-06 // $x=0.68 $y=3.14 $x2=0 $y2=0
104 X1/NET1:63 X1/X1/NET9:56 6.76918e-07 // $x=0.68 $y=3.14 $x2=0 $y2=0
105 x1/x1/MN13:d X1/X1/NET9:56 3.62399e-06 // $x=0.995 $y=1.735 $x2=0 $y2=0
106 x1/x1/MN13:d X1/X1/NET9:61 6.29776e-07 // $x=0.995 $y=1.735 $x2=0 $y2=0
107 X1/NET1:2 x1/x1/MP14:g 3.42863e-06 // $x=0.68 $y=3.01 $x2=0 $y2=0
108 X1/NET1:10 x1/x1/MP14:g 6.79778e-06 // $x=0.68 $y=3.14 $x2=0 $y2=0
109 X1/NET1:31 x1/x1/MP14:g 1.64757e-06 // $x=0.68 $y=2.955 $x2=0 $y2=0
110 X1/NET1:41 x1/x1/MP14:g 1.27551e-06 // $x=0.68 $y=3.14 $x2=0 $y2=0
111 X1/NET1:63 x1/x1/MP14:g 9.97449e-06 // $x=0.68 $y=3.14 $x2=0 $y2=0
112 X1/NET1:2 X1/X1/NET9:81 7.01959e-06 // $x=0.68 $y=3.01 $x2=0 $y2=0
113 X1/NET1:3 X1/X1/NET9:81 7.11134e-06 // $x=1.015 $y=2.02 $x2=0 $y2=0
114 X1/NET1:14 X1/X1/NET9:81 1.0962e-06 // $x=1.16 $y=2.02 $x2=0 $y2=0
115 X1/NET1:31 X1/X1/NET9:81 4.91686e-06 // $x=0.68 $y=2.955 $x2=0 $y2=0
116 x1/x1/MN13:d X1/X1/NET9:81 4.6145e-06 // $x=0.995 $y=1.735 $x2=0 $y2=0
117 X1/NET1:2 X1/X1/NET9:92 3.18237e-06 // $x=0.68 $y=3.01 $x2=0 $y2=0
118 X1/NET1:3 X1/X1/NET9:92 1.36557e-06 // $x=1.015 $y=2.02 $x2=0 $y2=0
119 X1/NET1:10 X1/X1/NET9:92 9.49632e-07 // $x=0.68 $y=3.14 $x2=0 $y2=0
120 X1/NET1:14 X1/X1/NET9:92 8.29626e-07 // $x=1.16 $y=2.02 $x2=0 $y2=0
121 X1/NET1:31 X1/X1/NET9:92 2.24031e-06 // $x=0.68 $y=2.955 $x2=0 $y2=0
122 X1/NET1:41 X1/X1/NET9:92 5.46406e-07 // $x=0.68 $y=3.14 $x2=0 $y2=0
123 X1/NET1:32 X1/X1/NET8:2 3.67414e-07 // $x=10.5 $y=1.375 $x2=2.24 $y2=2.93
124 X1/NET1:2 X1/X1/NET8:8 7.45854e-06 // $x=0.68 $y=3.01 $x2=2.12 $y2=2.02
125 X1/NET1:31 X1/X1/NET8:8 3.82938e-06 // $x=0.68 $y=2.955 $x2=2.12 $y2=2.02
126 X1/NET1:41 X1/X1/NET8:8 2.2699e-06 // $x=0.68 $y=3.14 $x2=2.12 $y2=2.02
127 X1/NET1:32 X1/X1/NET8:25 5.0786e-06 // $x=10.5 $y=1.375 $x2=0 $y2=0
128 X1/NET1:31 X1/X1/NET8:26 1.01805e-05 // $x=0.68 $y=2.955 $x2=2.12 $y2=2.02
129 X1/NET1:32 X1/X1/NET8:26 8.92262e-06 // $x=10.5 $y=1.375 $x2=2.12 $y2=2.02
130 X1/NET1:41 X1/X1/NET8:26 3.8187e-06 // $x=0.68 $y=3.14 $x2=2.12 $y2=2.02
131 X1/NET1:31 X1/X1/NET8:30 4.33642e-06 // $x=0.68 $y=2.955 $x2=2.36 $y2=3.42
132 X1/NET1:32 X1/X1/NET8:30 0.000206548 // $x=10.5 $y=1.375 $x2=2.36 $y2=3.42
133 X1/NET1:32 X1/X1/NET8:34 3.34839e-06 // $x=10.5 $y=1.375 $x2=0 $y2=0
134 X1/NET1:8 S1:2 6.88939e-07 // $x=10.76 $y=2.11 $x2=2.24 $y2=2.93
135 X1/NET1:26 S1:12 1.92895e-05 // $x=12.895 $y=2.14 $x2=2.36 $y2=3.42
136 X1/NET1:26 S1:21 8.14277e-06 // $x=12.895 $y=2.14 $x2=0 $y2=0
137 X1/NET1:6 S1:31 6.9075e-06 // $x=10.675 $y=2.025 $x2=2.6 $y2=3.335
138 X1/NET1:17 S1:31 5.71327e-06 // $x=10.675 $y=1.635 $x2=2.6 $y2=3.335
139 X1/NET1:26 S1:31 1.74352e-05 // $x=12.895 $y=2.14 $x2=2.6 $y2=3.335
140 X1/NET1:81 S1:37 2.00493e-06 // $x=12.235 $y=6.4 $x2=0 $y2=0
141 x1/x2/MP1:s S1:37 7.86349e-07 // $x=12.055 $y=5.015 $x2=0 $y2=0
142 X1/NET1:17 x1/x3/MN2:g 2.92347e-06 // $x=10.675 $y=1.635 $x2=0 $y2=0
143 X1/NET1:44 x1/x3/MN2:g 1.91701e-06 // $x=10.67 $y=1.375 $x2=0 $y2=0
144 x1/x3/MN1:s x1/x3/MN1:g 3.60504e-05 // $x=12.9 $y=0.575 $x2=0 $y2=0
145 X1/NET1:81 x1/x2/MN1:g 5.3306e-06 // $x=12.235 $y=6.4 $x2=0 $y2=0
146 X1/NET1:26 x1/x3/MP2:g 1.18797e-05 // $x=12.895 $y=2.14 $x2=0 $y2=0
147 X1/NET1:26 S1:81 8.78691e-06 // $x=12.895 $y=2.14 $x2=0 $y2=0
148 X1/NET1:39 S1:83 1.02181e-06 // $x=13.037 $y=5.695 $x2=0 $y2=0
149 X1/NET1:39 S1:85 1.02181e-06 // $x=13.037 $y=5.695 $x2=0 $y2=0
150 x1/x2/MP1:s S1:85 3.43407e-06 // $x=12.055 $y=5.015 $x2=0 $y2=0
151 X1/NET1:81 S1:87 1.31424e-05 // $x=12.235 $y=6.4 $x2=0 $y2=0
152 X1/NET1:26 S1:89 4.53066e-07 // $x=12.895 $y=2.14 $x2=0 $y2=0
153 X1/NET1:21 S1:91 3.71941e-06 // $x=12.235 $y=6.4 $x2=0 $y2=0
154 X1/NET1:36 S1:91 3.02503e-06 // $x=12.95 $y=5.782 $x2=0 $y2=0
155 X1/NET1:48 S1:91 1.21924e-06 // $x=12.28 $y=6.4 $x2=0 $y2=0
156 X1/NET1:49 S1:91 3.65045e-07 // $x=12.28 $y=6.22 $x2=0 $y2=0
157 X1/NET1:51 S1:91 3.00046e-06 // $x=12.237 $y=5.782 $x2=0 $y2=0
158 X1/NET1:91 S1:91 5.22116e-06 // $x=12.207 $y=6.245 $x2=0 $y2=0
159 x1/x2/MP1:s S1:91 1.89747e-05 // $x=12.055 $y=5.015 $x2=0 $y2=0
160 X1/NET1:6 S1:108 4.0996e-06 // $x=10.675 $y=2.025 $x2=0 $y2=0
161 X1/NET1:17 S1:108 3.4544e-06 // $x=10.675 $y=1.635 $x2=0 $y2=0
162 X1/NET1:26 S1:108 2.31339e-06 // $x=12.895 $y=2.14 $x2=0 $y2=0
163 X1/NET1:21 NET5:3 5.26093e-05 // $x=12.235 $y=6.4 $x2=2.53 $y2=3
164 X1/NET1:36 NET5:3 1.51772e-05 // $x=12.95 $y=5.782 $x2=2.53 $y2=3
165 X1/NET1:48 NET5:3 3.72472e-06 // $x=12.28 $y=6.4 $x2=2.53 $y2=3
166 X1/NET1:79 NET5:3 8.30721e-07 // $x=12.235 $y=7.855 $x2=2.53 $y2=3
167 X1/NET1:81 NET5:3 1.74092e-05 // $x=12.235 $y=6.4 $x2=2.53 $y2=3
168 X1/NET1:26 NET5:16 4.90782e-05 // $x=12.895 $y=2.14 $x2=0 $y2=0
169 X1/NET1:39 NET5:16 7.05478e-06 // $x=13.037 $y=5.695 $x2=0 $y2=0
170 X1/NET1:36 NET5:20 5.11574e-06 // $x=12.95 $y=5.782 $x2=0 $y2=0
171 X1/NET1:36 NET5:35 8.76859e-07 // $x=12.95 $y=5.782 $x2=2.435 $y2=2.985
172 X1/NET1:79 NET5:35 2.91773e-06 // $x=12.235 $y=7.855 $x2=2.435 $y2=2.985
173 X1/NET1:26 NET5:37 2.63902e-05 // $x=12.895 $y=2.14 $x2=0 $y2=0
174 X1/NET1:39 NET5:37 1.69474e-05 // $x=13.037 $y=5.695 $x2=0 $y2=0
175 X1/NET1:51 NET5:37 1.86318e-06 // $x=12.237 $y=5.782 $x2=0 $y2=0
176 X1/NET1:21 NET5:38 2.02028e-05 // $x=12.235 $y=6.4 $x2=0 $y2=0
177 X1/NET1:39 NET5:38 7.63089e-05 // $x=13.037 $y=5.695 $x2=0 $y2=0
178 X1/NET1:48 NET5:38 3.71799e-05 // $x=12.28 $y=6.4 $x2=0 $y2=0
179 X1/NET1:51 NET5:38 5.05422e-05 // $x=12.237 $y=5.782 $x2=0 $y2=0
180 x1/x2/MP1:s NET5:38 9.60545e-06 // $x=12.055 $y=5.015 $x2=0 $y2=0
181 X1/NET1:36 NET5:51 7.05703e-06 // $x=12.95 $y=5.782 $x2=0 $y2=0
182 X1/NET1:55 NET5:51 4.15526e-07 // $x=13.07 $y=2.14 $x2=0 $y2=0
183 X1/NET1:21 NET5:52 9.97239e-07 // $x=12.235 $y=6.4 $x2=0 $y2=0
184 X1/NET1:36 NET5:52 1.18846e-05 // $x=12.95 $y=5.782 $x2=0 $y2=0
185 X1/NET1:48 NET5:52 3.19497e-05 // $x=12.28 $y=6.4 $x2=0 $y2=0
186 X1/NET1:79 NET5:52 8.3059e-07 // $x=12.235 $y=7.855 $x2=0 $y2=0
187 X1/NET1:81 NET5:52 3.69629e-06 // $x=12.235 $y=6.4 $x2=0 $y2=0
188 X1/NET1:26 NET5:70 1.00922e-06 // $x=12.895 $y=2.14 $x2=0 $y2=0
189 x1/x3/MN1:s NET5:70 1.56801e-06 // $x=12.9 $y=0.575 $x2=0 $y2=0
190 X1/NET1:26 NET5:73 1.91868e-05 // $x=12.895 $y=2.14 $x2=0 $y2=0
191 x1/x3/MN1:s NET5:73 1.1843e-05 // $x=12.9 $y=0.575 $x2=0 $y2=0
192 x1/x2/MP1:s x1/x3/MP1:s 1.0705e-06 // $x=12.055 $y=5.015 $x2=0 $y2=0
193 X1/NET1:36 x1/x2/MP0:s 6.25594e-06 // $x=12.95 $y=5.782 $x2=0 $y2=0
194 X1/NET1:39 x1/x2/MP0:s 1.14907e-05 // $x=13.037 $y=5.695 $x2=0 $y2=0
195 X1/NET1:79 x1/x2/MP0:s 1.56801e-06 // $x=12.235 $y=7.855 $x2=0 $y2=0
196 X1/NET1:81 x1/x2/MP0:s 1.30025e-05 // $x=12.235 $y=6.4 $x2=0 $y2=0
197 x1/x2/MP1:s x1/x2/MP0:s 2.2934e-06 // $x=12.055 $y=5.015 $x2=0 $y2=0
198 X1/NET1:39 X2/X1/NET9:2 6.91897e-06 // $x=13.037 $y=5.695 $x2=2.24 $y2=2.93
199 X1/NET1:6 X1/NET6:2 7.06203e-07 // $x=10.675 $y=2.025 $x2=2.24 $y2=2.93
200 X1/NET1:17 X1/NET6:2 4.23914e-06 // $x=10.675 $y=1.635 $x2=2.24 $y2=2.93
201 X1/NET1:26 X1/NET6:2 3.33252e-05 // $x=12.895 $y=2.14 $x2=2.24 $y2=2.93
202 X1/NET1:44 X1/NET6:2 6.80812e-06 // $x=10.67 $y=1.375 $x2=2.24 $y2=2.93
203 x1/x3/MN1:s X1/NET6:2 1.27188e-05 // $x=12.9 $y=0.575 $x2=2.24 $y2=2.93
204 X1/NET1:26 X1/NET6:3 1.22631e-05 // $x=12.895 $y=2.14 $x2=2.53 $y2=3
205 X1/NET1:28 X1/NET6:3 3.83292e-05 // $x=13.07 $y=2.14 $x2=2.53 $y2=3
206 X1/NET1:55 X1/NET6:3 1.41108e-05 // $x=13.07 $y=2.14 $x2=2.53 $y2=3
207 x1/x3/MN1:s X1/NET6:3 2.19944e-05 // $x=12.9 $y=0.575 $x2=2.53 $y2=3
208 X1/NET1:6 X1/NET6:6 7.4413e-07 // $x=10.675 $y=2.025 $x2=2.6 $y2=3.305
209 X1/NET1:28 X1/NET6:6 8.79233e-06 // $x=13.07 $y=2.14 $x2=2.6 $y2=3.305
210 X1/NET1:39 X1/NET6:6 2.11156e-05 // $x=13.037 $y=5.695 $x2=2.6 $y2=3.305
211 X1/NET1:55 X1/NET6:6 6.18224e-06 // $x=13.07 $y=2.14 $x2=2.6 $y2=3.305
212 x1/x3/MN1:s X1/NET6:6 6.89914e-06 // $x=12.9 $y=0.575 $x2=2.6 $y2=3.305
213 X1/NET1:26 X1/NET6:8 9.55137e-07 // $x=12.895 $y=2.14 $x2=2.12 $y2=2.02
214 x1/x3/MN1:s X1/NET6:8 6.22523e-06 // $x=12.9 $y=0.575 $x2=2.12 $y2=2.02
215 X1/NET1:26 X1/NET6:21 1.96891e-05 // $x=12.895 $y=2.14 $x2=0 $y2=0
216 X1/NET1:28 X1/NET6:21 3.27376e-06 // $x=13.07 $y=2.14 $x2=0 $y2=0
217 X1/NET1:39 X1/NET6:21 1.16254e-05 // $x=13.037 $y=5.695 $x2=0 $y2=0
218 x1/x3/MN1:s X1/NET6:21 0.000112806 // $x=12.9 $y=0.575 $x2=0 $y2=0
219 X1/NET1:28 X1/NET6:28 2.09313e-06 // $x=13.07 $y=2.14 $x2=0 $y2=0
220 x1/x3/MN1:s X1/NET6:28 3.58001e-07 // $x=12.9 $y=0.575 $x2=0 $y2=0
221 x1/x3/MN1:s X1/NET6:33 1.50639e-05 // $x=12.9 $y=0.575 $x2=1.955 $y2=1.735
222 x1/x3/MN1:s x1/x4/MN0:g 1.10954e-05 // $x=12.9 $y=0.575 $x2=2.435 $y2=2.985
223 x1/x3/MN1:s x1/x4/MP0:g 4.56043e-06 // $x=12.9 $y=0.575 $x2=0 $y2=0
224 x1/x3/MN1:s X1/NET6:44 3.28864e-07 // $x=12.9 $y=0.575 $x2=0 $y2=0
225 x1/x3/MN1:s x1/x3/MN0:d 2.76303e-05 // $x=12.9 $y=0.575 $x2=0 $y2=0
226 X1/NET1:81 X1/NET5:1 2.42961e-05 // $x=12.235 $y=6.4 $x2=2.24 $y2=2.15
227 X1/NET1:49 X1/NET5:5 8.19423e-06 // $x=12.28 $y=6.22 $x2=2.6 $y2=3.07
228 X1/NET1:51 X1/NET5:5 5.22765e-06 // $x=12.237 $y=5.782 $x2=2.6 $y2=3.07
229 X1/NET1:21 X1/NET5:6 1.45543e-06 // $x=12.235 $y=6.4 $x2=2.6 $y2=3.305
230 X1/NET1:48 X1/NET5:6 8.02143e-06 // $x=12.28 $y=6.4 $x2=2.6 $y2=3.305
231 X1/NET1:81 X1/NET5:8 7.76332e-06 // $x=12.235 $y=6.4 $x2=2.12 $y2=2.02
232 X1/NET1:79 X1/NET5:22 1.63443e-05 // $x=12.235 $y=7.855 $x2=0 $y2=0
233 X1/NET1:81 X1/NET5:22 1.7586e-05 // $x=12.235 $y=6.4 $x2=0 $y2=0
234 X1/NET1:21 x1/x2/MP1:d 5.49944e-06 // $x=12.235 $y=6.4 $x2=0 $y2=0
235 X1/NET1:36 x1/x2/MP1:d 9.19396e-06 // $x=12.95 $y=5.782 $x2=0 $y2=0
236 X1/NET1:39 x1/x2/MP1:d 5.1738e-06 // $x=13.037 $y=5.695 $x2=0 $y2=0
237 X1/NET1:48 x1/x2/MP1:d 6.88731e-07 // $x=12.28 $y=6.4 $x2=0 $y2=0
238 X1/NET1:49 x1/x2/MP1:d 2.54036e-06 // $x=12.28 $y=6.22 $x2=0 $y2=0
239 X1/NET1:51 x1/x2/MP1:d 3.38969e-06 // $x=12.237 $y=5.782 $x2=0 $y2=0
240 X1/NET1:81 x1/x2/MP1:d 4.47144e-06 // $x=12.235 $y=6.4 $x2=0 $y2=0
241 X1/NET1:91 x1/x2/MP1:d 6.51086e-05 // $x=12.207 $y=6.245 $x2=0 $y2=0
242 x1/x2/MP1:s x1/x2/MP1:d 4.91455e-05 // $x=12.055 $y=5.015 $x2=0 $y2=0
243 x1/x3/MN1:s X1/NET3:2 7.48955e-06 // $x=12.9 $y=0.575 $x2=2.24 $y2=2.93
244 x1/x3/MN1:s X1/NET3:8 2.1065e-06 // $x=12.9 $y=0.575 $x2=2.12 $y2=2.02
245 X1/NET1:39 X1/NET3:22 2.86386e-06 // $x=13.037 $y=5.695 $x2=0 $y2=0
246 x1/x3/MN1:s X1/NET3:22 7.14734e-06 // $x=12.9 $y=0.575 $x2=0 $y2=0
247 x1/x3/MN1:s x1/x4/MN0:d 2.93326e-06 // $x=12.9 $y=0.575 $x2=0 $y2=0
248 X1/NET1:39 x1/x6/MP0:d 3.11223e-06 // $x=13.037 $y=5.695 $x2=0 $y2=0
249 X1/NET1:3 VDD:4 1.85206e-06 // $x=1.015 $y=2.02 $x2=2.31 $y2=3
250 X1/NET1:14 VDD:4 1.9159e-06 // $x=1.16 $y=2.02 $x2=2.31 $y2=3
251 X1/NET1:63 VDD:4 2.97665e-07 // $x=0.68 $y=3.14 $x2=2.31 $y2=3
252 X1/NET1:10 VDD:5 1.03158e-05 // $x=0.68 $y=3.14 $x2=2.6 $y2=3.07
253 X1/NET1:41 VDD:5 1.24787e-05 // $x=0.68 $y=3.14 $x2=2.6 $y2=3.07
254 X1/NET1:63 VDD:5 2.69825e-06 // $x=0.68 $y=3.14 $x2=2.6 $y2=3.07
255 X1/NET1:39 VDD:29 1.37624e-06 // $x=13.037 $y=5.695 $x2=2.36 $y2=3.335
256 X1/NET1:8 VDD:128 1.10426e-05 // $x=10.76 $y=2.11 $x2=0 $y2=0
257 X1/NET1:17 VDD:128 2.37939e-07 // $x=10.675 $y=1.635 $x2=0 $y2=0
258 X1/NET1:21 VDD:128 3.06912e-06 // $x=12.235 $y=6.4 $x2=0 $y2=0
259 X1/NET1:28 VDD:128 1.61223e-06 // $x=13.07 $y=2.14 $x2=0 $y2=0
260 X1/NET1:32 VDD:128 1.12335e-05 // $x=10.5 $y=1.375 $x2=0 $y2=0
261 X1/NET1:36 VDD:128 2.43682e-07 // $x=12.95 $y=5.782 $x2=0 $y2=0
262 X1/NET1:39 VDD:128 9.18445e-05 // $x=13.037 $y=5.695 $x2=0 $y2=0
263 X1/NET1:44 VDD:128 1.47924e-06 // $x=10.67 $y=1.375 $x2=0 $y2=0
264 X1/NET1:48 VDD:128 6.60372e-07 // $x=12.28 $y=6.4 $x2=0 $y2=0
265 X1/NET1:51 VDD:128 3.5326e-05 // $x=12.237 $y=5.782 $x2=0 $y2=0
266 X1/NET1:55 VDD:128 2.71794e-06 // $x=13.07 $y=2.14 $x2=0 $y2=0
267 X1/NET1:91 VDD:128 2.31928e-07 // $x=12.207 $y=6.245 $x2=0 $y2=0
268 x1/x3/MN1:s VDD:128 2.608e-06 // $x=12.9 $y=0.575 $x2=0 $y2=0
269 x1/x2/MP1:s VDD:128 2.27481e-06 // $x=12.055 $y=5.015 $x2=0 $y2=0
270 X1/NET1:10 VDD:144 4.60977e-07 // $x=0.68 $y=3.14 $x2=0 $y2=0
271 X1/NET1:63 VDD:144 6.57731e-06 // $x=0.68 $y=3.14 $x2=0 $y2=0
272 X1/NET1:21 VDD:208 2.12406e-06 // $x=12.235 $y=6.4 $x2=0 $y2=0
273 X1/NET1:91 VDD:208 3.43681e-07 // $x=12.207 $y=6.245 $x2=0 $y2=0
274 x1/x3/MN1:s VDD:208 1.21812e-05 // $x=12.9 $y=0.575 $x2=0 $y2=0
275 x1/x2/MP1:s VDD:208 1.06713e-05 // $x=12.055 $y=5.015 $x2=0 $y2=0
276 X1/NET1:39 x1/x4/MP0:s 8.70975e-06 // $x=13.037 $y=5.695 $x2=0 $y2=0
277 x1/x3/MN1:s x1/x4/MP0:s 9.59213e-06 // $x=12.9 $y=0.575 $x2=0 $y2=0
278 X1/NET1:39 x1/x6/MP0:s 9.64745e-06 // $x=13.037 $y=5.695 $x2=0 $y2=0
279 X1/NET1:26 X1/X3/NSEL:6 8.55044e-06 // $x=12.895 $y=2.14 $x2=2.6 $y2=3.305
280 X1/NET1:17 X1/X3/NSEL:14 3.28355e-06 // $x=10.675 $y=1.635 $x2=0 $y2=0
281 X1/NET1:26 X1/X3/NSEL:14 3.95105e-06 // $x=12.895 $y=2.14 $x2=0 $y2=0
282 X1/NET1:44 X1/X3/NSEL:14 3.67628e-06 // $x=10.67 $y=1.375 $x2=0 $y2=0
283 x1/x3/MN1:s X1/X3/NSEL:14 6.22937e-07 // $x=12.9 $y=0.575 $x2=0 $y2=0
284 X1/NET1:26 X1/X3/NSEL:19 2.38142e-05 // $x=12.895 $y=2.14 $x2=0 $y2=0
285 X1/NET1:28 x1/x3/MP0:g 1.6035e-06 // $x=13.07 $y=2.14 $x2=0 $y2=0
286 X1/NET1:39 x1/x3/MP0:g 1.68762e-06 // $x=13.037 $y=5.695 $x2=0 $y2=0
287 X1/NET1:26 X1/X3/NSEL:25 7.35691e-06 // $x=12.895 $y=2.14 $x2=0 $y2=0
288 X1/NET1:28 X1/X3/NSEL:25 1.06612e-06 // $x=13.07 $y=2.14 $x2=0 $y2=0
289 x1/x3/MN1:s X1/X3/NSEL:25 4.54122e-05 // $x=12.9 $y=0.575 $x2=0 $y2=0
290 x1/x3/MN1:s x1/x3/MN2:d 4.5864e-07 // $x=12.9 $y=0.575 $x2=0 $y2=0
291 X1/NET1:81 X1/X2/NSEL:6 1.42138e-05 // $x=12.235 $y=6.4 $x2=2.6 $y2=3.305
292 X1/NET1:21 X1/X2/NSEL:14 3.12923e-06 // $x=12.235 $y=6.4 $x2=0 $y2=0
293 X1/NET1:81 X1/X2/NSEL:14 2.55958e-05 // $x=12.235 $y=6.4 $x2=0 $y2=0
294 X1/NET1:81 X1/X2/NSEL:19 2.72949e-05 // $x=12.235 $y=6.4 $x2=0 $y2=0
295 X1/NET1:79 x1/x2/MN0:g 4.24594e-06 // $x=12.235 $y=7.855 $x2=0 $y2=0
296 X1/NET1:81 x1/x2/MN0:g 7.76828e-06 // $x=12.235 $y=6.4 $x2=0 $y2=0
297 X1/NET1:36 x1/x2/MP0:g 5.97788e-06 // $x=12.95 $y=5.782 $x2=0 $y2=0
298 X1/NET1:39 x1/x2/MP0:g 1.68762e-06 // $x=13.037 $y=5.695 $x2=0 $y2=0
299 X1/NET1:21 X1/X2/NSEL:23 1.67388e-06 // $x=12.235 $y=6.4 $x2=2.12 $y2=1.92
300 X1/NET1:36 X1/X2/NSEL:23 6.9747e-07 // $x=12.95 $y=5.782 $x2=2.12 $y2=1.92
301 X1/NET1:81 X1/X2/NSEL:23 1.27624e-05 // $x=12.235 $y=6.4 $x2=2.12 $y2=1.92
302 X1/NET1:91 X1/X2/NSEL:23 1.72718e-06 // $x=12.207 $y=6.245 $x2=2.12 $y2=1.92
303 X1/NET1:79 X1/X2/NSEL:25 2.17852e-06 // $x=12.235 $y=7.855 $x2=0 $y2=0
304 X1/NET1:81 X1/X2/NSEL:25 1.34274e-05 // $x=12.235 $y=6.4 $x2=0 $y2=0
305 X1/NET1:21 X1/X2/NSEL:36 1.86131e-06 // $x=12.235 $y=6.4 $x2=0 $y2=0
306 X1/NET1:81 X1/X2/NSEL:36 4.665e-06 // $x=12.235 $y=6.4 $x2=0 $y2=0
307 X1/NET1:81 X1/X2/NSEL:40 4.69871e-06 // $x=12.235 $y=6.4 $x2=0 $y2=0
308 X1/NET1:79 x1/x2/MN2:d 2.01165e-05 // $x=12.235 $y=7.855 $x2=0 $y2=0
309 X1/NET1:81 x1/x2/MN2:d 7.6635e-06 // $x=12.235 $y=6.4 $x2=0 $y2=0
310 X1/NET1:21 x1/x2/MP2:d 5.8239e-06 // $x=12.235 $y=6.4 $x2=0 $y2=0
311 X1/NET1:81 x1/x2/MP2:d 7.51806e-06 // $x=12.235 $y=6.4 $x2=0 $y2=0
312 x1/x2/MP1:s x1/x2/MP2:d 4.81034e-05 // $x=12.055 $y=5.015 $x2=0 $y2=0
313 x1/x2/MP1:s 1.44537e-05 // $x=12.055 $y=5.015
314 x1/x3/MN1:s 7.68499e-05 // $x=12.9 $y=0.575
315 x1/x1/MN13:d 8.9376e-06 // $x=0.995 $y=1.735
316 X1/NET1:91 3.71436e-06 // $x=12.207 $y=6.245
317 X1/NET1:81 1.43169e-05 // $x=12.235 $y=6.4
318 X1/NET1:79 8.94889e-06 // $x=12.235 $y=7.855
319 X1/NET1:63 1.79262e-05 // $x=0.68 $y=3.14
320 X1/NET1:55 4.19817e-07 // $x=13.07 $y=2.14
321 X1/NET1:51 7.89487e-06 // $x=12.237 $y=5.782
322 X1/NET1:49 1.50586e-06 // $x=12.28 $y=6.22
323 X1/NET1:48 2.11677e-06 // $x=12.28 $y=6.4
324 X1/NET1:44 1.21617e-05 // $x=10.67 $y=1.375
325 X1/NET1:41 5.68499e-05 // $x=0.68 $y=3.14
326 X1/NET1:39 1.38703e-05 // $x=13.037 $y=5.695
327 X1/NET1:36 1.22463e-05 // $x=12.95 $y=5.782
328 X1/NET1:33 5.21656e-06 // $x=0.765 $y=1.375
329 X1/NET1:32 0.00011331 // $x=10.5 $y=1.375
330 X1/NET1:31 4.36884e-05 // $x=0.68 $y=2.955
331 X1/NET1:28 6.90357e-06 // $x=13.07 $y=2.14
332 X1/NET1:26 3.80149e-05 // $x=12.895 $y=2.14
333 X1/NET1:21 1.05793e-05 // $x=12.235 $y=6.4
334 X1/NET1:17 1.62168e-05 // $x=10.675 $y=1.635
335 X1/NET1:14 1.01874e-05 // $x=1.16 $y=2.02
336 X1/NET1:10 1.10617e-05 // $x=0.68 $y=3.14
337 X1/NET1:8 6.27933e-06 // $x=10.76 $y=2.11
338 X1/NET1:6 4.16461e-06 // $x=10.675 $y=2.025
339 X1/NET1:4 2.11434e-06 // $x=0.75 $y=2.02
340 X1/NET1:3 1.02849e-06 // $x=1.015 $y=2.02
341 X1/NET1:2 2.28131e-05 // $x=0.68 $y=3.01

*RES
342 X1/NET1:90 X1/NET1:91 8.97593 // $w=0.242 $lvl=li $x=12.207 $y=6.075 $x2=12.207 $y2=6.245 $l=0.17
343 X1/NET1:90 x1/x2/MP1:s 33.5401 // $w=0.187 $lvl=li $x=12.18 $y=6.075 $x2=12.18 $y2=5.585 $l=0.49
344 X1/NET1:86 x1/x3/MP0:s 81.1123 // $w=0.187 $lvl=li $x=13.04 $y=2.11 $x2=13.04 $y2=3.295 $l=1.185
345 X1/NET1:86 x1/x3/MN1:s 92.7487 // $w=0.187 $lvl=li $x=13.04 $y=2.11 $x2=13.04 $y2=0.755 $l=1.355
346 X1/NET1:81 X1/NET1:91 10.6096 // $w=0.187 $lvl=li $x=12.235 $y=6.4 $x2=12.235 $y2=6.245 $l=0.155
347 X1/NET1:79 x1/x2/MN0:s 18.2793 // $w=0.191 $lvl=li $x=12.235 $y=7.855 $x2=12.207 $y2=8.125 $l=0.283655
348 X1/NET1:79 X1/NET1:81 99.5936 // $w=0.187 $lvl=li $x=12.235 $y=7.855 $x2=12.235 $y2=6.4 $l=1.455
349 X1/NET1:72 x1/x1/MN13:d 6.84492 // $w=0.187 $lvl=li $x=1.16 $y=2.02 $x2=1.16 $y2=1.92 $l=0.1
350 X1/NET1:63 x1/x1/MP14:d 11.6364 // $w=0.187 $lvl=li $x=0.68 $y=3.14 $x2=0.68 $y2=3.31 $l=0.17
351 X1/NET1:55 X1/NET1:57 0.110881 // $w=0.311 $lvl=m2 $x=13.07 $y=2.14 $x2=13.07 $y2=2.315 $l=0.175
352 X1/NET1:51 X1/NET1:53 0.241728 // $w=0.136 $lvl=m2 $x=12.237 $y=5.782 $x2=12.237 $y2=6.045 $l=0.263
353 X1/NET1:49 X1/NET1:53 0.166985 // $w=0.131 $lvl=m2 $x=12.235 $y=6.22 $x2=12.235 $y2=6.045 $l=0.175
354 X1/NET1:48 X1/NET1:49 0.116237 // $w=0.281 $lvl=m2 $x=12.28 $y=6.4 $x2=12.28 $y2=6.22 $l=0.18
355 X1/NET1:44 X1/NET1:46 0.103834 // $w=0.313 $lvl=m2 $x=10.67 $y=1.375 $x2=10.67 $y2=1.635 $l=0.26
356 X1/NET1:39 X1/NET1:57 3.10662 // $w=0.136 $lvl=m2 $x=13.037 $y=5.695 $x2=13.037 $y2=2.315 $l=3.38
357 X1/NET1:37 X1/NET1:51 0.00769824 // $w=0.175 $lvl=m2 $x=12.325 $y=5.782 $x2=12.237 $y2=5.782 $l=0.088
358 X1/NET1:36 X1/NET1:39 0.0698411 // $w=0.175 $lvl=m2 $x=12.95 $y=5.782 $x2=13.037 $y2=5.695 $l=0.123037
359 X1/NET1:36 X1/NET1:37 0.574449 // $w=0.136 $lvl=m2 $x=12.95 $y=5.782 $x2=12.325 $y2=5.782 $l=0.625
360 X1/NET1:32 X1/NET1:44 0.0441684 // $w=0.313 $lvl=m2 $x=10.5 $y=1.375 $x2=10.67 $y2=1.375 $l=0.17
361 X1/NET1:32 X1/NET1:33 9.28912 // $w=0.131 $lvl=m2 $x=10.5 $y=1.375 $x2=0.765 $y2=1.375 $l=9.735
362 X1/NET1:31 X1/NET1:41 0.122036 // $w=0.241 $lvl=m2 $x=0.68 $y=2.955 $x2=0.68 $y2=3.14 $l=0.185
363 X1/NET1:30 X1/NET1:33 0.0698411 // $w=0.17 $lvl=m2 $x=0.68 $y=1.46 $x2=0.765 $y2=1.375 $l=0.120208
364 X1/NET1:30 X1/NET1:31 1.42653 // $w=0.131 $lvl=m2 $x=0.68 $y=1.46 $x2=0.68 $y2=2.955 $l=1.495
365 X1/NET1:28 X1/NET1:55 4.5 // $w=0.15 $lvl=via1 $x=13.07 $y=2.14 $x2=13.07 $y2=2.14 $l=0.15 $count=1
366 X1/NET1:25 X1/NET1:86 9.3 // $w=0.17 $lvl=mcon $x=13.04 $y=2.11 $x2=13.04 $y2=2.11 $l=0.17 $count=1
367 X1/NET1:25 X1/NET1:28 0.0120579 // $w=0.311 $lvl=m1 $x=13.04 $y=2.14 $x2=13.07 $y2=2.14 $l=0.03
368 X1/NET1:25 X1/NET1:26 0.101447 // $w=0.311 $lvl=m1 $x=13.04 $y=2.14 $x2=12.895 $y2=2.14 $l=0.145
369 X1/NET1:23 X1/NET1:48 4.5 // $w=0.15 $lvl=via1 $x=12.28 $y=6.4 $x2=12.28 $y2=6.4 $l=0.15 $count=1
370 X1/NET1:21 X1/NET1:81 9.3 // $w=0.17 $lvl=mcon $x=12.235 $y=6.4 $x2=12.235 $y2=6.4 $l=0.17 $count=1
371 X1/NET1:21 X1/NET1:23 0.0226815 // $w=0.248 $lvl=m1 $x=12.235 $y=6.4 $x2=12.28 $y2=6.4 $l=0.045
372 X1/NET1:17 X1/NET1:46 4.5 // $w=0.15 $lvl=via1 $x=10.675 $y=1.635 $x2=10.675 $y2=1.635 $l=0.15 $count=1
373 X1/NET1:17 X1/NET1:19 0.113561 // $w=0.301 $lvl=m1 $x=10.67 $y=1.635 $x2=10.67 $y2=1.81 $l=0.175
374 X1/NET1:14 X1/NET1:72 9.3 // $w=0.17 $lvl=mcon $x=1.16 $y=2.02 $x2=1.16 $y2=2.02 $l=0.17 $count=1
375 X1/NET1:10 X1/NET1:63 9.3 // $w=0.17 $lvl=mcon $x=0.68 $y=3.14 $x2=0.68 $y2=3.14 $l=0.17 $count=1
376 X1/NET1:10 X1/NET1:41 4.5 // $w=0.15 $lvl=via1 $x=0.68 $y=3.14 $x2=0.68 $y2=3.14 $l=0.15 $count=1
377 X1/NET1:8 X1/NET1:26 2.03721 // $w=0.131 $lvl=m1 $x=10.76 $y=2.11 $x2=12.895 $y2=2.11 $l=2.135
378 X1/NET1:6 X1/NET1:8 0.0698411 // $w=0.17 $lvl=m1 $x=10.675 $y=2.025 $x2=10.76 $y2=2.11 $l=0.120208
379 X1/NET1:6 X1/NET1:19 0.205153 // $w=0.131 $lvl=m1 $x=10.675 $y=2.025 $x2=10.675 $y2=1.81 $l=0.215
380 X1/NET1:3 X1/NET1:14 0.123138 // $w=0.191 $lvl=m1 $x=1.015 $y=2.02 $x2=1.16 $y2=2.02 $l=0.145
381 X1/NET1:3 X1/NET1:4 0.32797 // $w=0.101 $lvl=m1 $x=1.015 $y=2.02 $x2=0.75 $y2=2.02 $l=0.265
382 X1/NET1:2 X1/NET1:10 0.112452 // $w=0.281 $lvl=m1 $x=0.68 $y=3.01 $x2=0.68 $y2=3.14 $l=0.13
383 X1/NET1:1 X1/NET1:4 0.0698411 // $w=0.14 $lvl=m1 $x=0.68 $y=2.09 $x2=0.75 $y2=2.02 $l=0.0989949
384 X1/NET1:1 X1/NET1:2 1.13861 // $w=0.101 $lvl=m1 $x=0.68 $y=2.09 $x2=0.68 $y2=3.01 $l=0.92
385 x1/x1/MN14:d x1/x1/MN13:d 0.01 // $x=0.995 $y=1.735 $x2=0.995 $y2=1.735 $l=0

*END

*D_NET X1/NET8 0.000880533
*CONN
*I x1/x1/MN12:d B 
*I x1/x1/MN11:d B 
*I x1/x1/MP12:d B 

*CAP
0 X1/NET8:2 X1/NET1:2 5.95941e-06 // $x=2.24 $y=2.93 $x2=0.68 $y2=3.01
1 X1/NET8:2 X1/NET1:31 3.19228e-06 // $x=2.24 $y=2.93 $x2=0.68 $y2=2.955
2 X1/NET8:2 X1/NET1:41 2.24843e-06 // $x=2.24 $y=2.93 $x2=0.68 $y2=3.14
3 X1/NET8:8 X1/NET1:2 3.26833e-07 // $x=2.12 $y=2.02 $x2=0.68 $y2=3.01
4 X1/NET8:8 X1/NET1:14 1.98781e-05 // $x=2.12 $y=2.02 $x2=1.16 $y2=2.02
5 X1/NET8:8 X1/NET1:31 2.17405e-05 // $x=2.12 $y=2.02 $x2=0.68 $y2=2.955
6 X1/NET8:8 X1/NET1:32 2.91472e-05 // $x=2.12 $y=2.02 $x2=10.5 $y2=1.375
7 X1/NET8:8 X1/NET1:41 1.72956e-06 // $x=2.12 $y=2.02 $x2=0.68 $y2=3.14
8 X1/NET8:8 x1/x1/MN13:d 3.24273e-07 // $x=2.12 $y=2.02 $x2=0.995 $y2=1.735
9 x1/x1/MN12:d X1/NET1:14 3.12159e-07 // $x=1.955 $y=1.735 $x2=1.16 $y2=2.02
10 x1/x1/MN12:d x1/x1/MN13:d 1.42231e-06 // $x=1.955 $y=1.735 $x2=0.995 $y2=1.735
11 X1/NET8:2 X1/NET9:2 4.36332e-06 // $x=2.24 $y=2.93 $x2=0.68 $y2=3.01
12 x1/x1/MN12:d X1/NET9:2 2.36458e-07 // $x=1.955 $y=1.735 $x2=0.68 $y2=3.01
13 X1/NET8:2 X1/NET9:4 4.0535e-06 // $x=2.24 $y=2.93 $x2=0.75 $y2=2.02
14 X1/NET8:3 X1/NET9:4 7.11905e-06 // $x=2.53 $y=3 $x2=0.75 $y2=2.02
15 X1/NET8:8 X1/NET9:6 4.36332e-06 // $x=2.12 $y=2.02 $x2=10.675 $y2=2.025