*SPEF "2.0"
*DESIGN "SKY130_OSU_RING_OSCILLATOR_MPR2CT_8_B0R2"
*DATE "Fri Nov  3 09:48:50 2023"
*VENDOR "Mentor Graphics Corp."
*PROGRAM "Calibre xRC"
*VERSION "v2023.2_27.15"
*DESIGN_FLOW "extraction"
*DIVIDER /
*DELIMITER :
*BUS_DELIMITER []
*T_UNIT 1 NS
*C_UNIT 1 PF
*R_UNIT 1 OHM
*L_UNIT 1 HENRY



// CIRCUIT TEMPERATURE 30C
// NOMINAL TEMPERATURE 30C

*PORTS 
 X5_Y1 B
 X4_Y1 B
 X3_Y1 B
 X2_Y1 B
 X1_Y1 B
 VDD B
 START B
 S5 B
 S4 B
 S3 B
 S2 B
 S1 B
 GND B

*D_NET GND 0.071513
*CONN
*P GND B 
*I x1/x11/MN13:g I 
*I x1/x11/MN15:g I 
*I x2/x11/MN13:g I 
*I x2/x11/MN15:g I 
*I x3/x11/MN13:g I 
*I x3/x11/MN15:g I 
*I x4/x11/MN13:g I 
*I x4/x11/MN15:g I 
*I x5/x11/MN13:g I 
*I x5/x11/MN15:g I 
*I x1/x11/MP13:g I 
*I x1/x11/MP15:g I 
*I x2/x11/MP13:g I 
*I x2/x11/MP15:g I 
*I x3/x11/MP13:g I 
*I x3/x11/MP15:g I 
*I x4/x11/MP13:g I 
*I x4/x11/MP15:g I 
*I x5/x11/MP13:g I 
*I x5/x11/MP15:g I 
*I x6/MN2:s B 
*I x1/x8/MN2:s B 
*I x1/x8/MN0:s B 
*I x1/x11/MN9:s B 
*I x1/x11/MN13:s B 
*I x1/x11/MN9\@2:s B 
*I x1/x11/MN7:s B 
*I x1/x11/MN8:s B 
*I x1/x11/MN1:s B 
*I x1/x11/MN15:s B 
*I x1/x11/MN0:s B 
*I x1/x11/MN6:s B 
*I x1/x11/MN17:s B 
*I x1/x11/MN2:d B 
*I x1/x11/MN4:s B 
*I x1/x11/MN11:s B 
*I x1/x11/MN5:s B 
*I x1/x3/MN2:s B 
*I x1/x2/MN2:s B 
*I x1/x4/MN0:s B 
*I x1/x6/MN0:s B 
*I x1/x5/MN0:s B 
*I x1/x7/MN0:s B 
*I x2/x8/MN2:s B 
*I x2/x8/MN0:s B 
*I x2/x11/MN9:s B 
*I x2/x11/MN13:s B 
*I x2/x11/MN9\@2:s B 
*I x2/x11/MN7:s B 
*I x2/x11/MN8:s B 
*I x2/x11/MN1:s B 
*I x2/x11/MN15:s B 
*I x2/x11/MN0:s B 
*I x2/x11/MN6:s B 
*I x2/x11/MN17:s B 
*I x2/x11/MN2:d B 
*I x2/x11/MN4:s B 
*I x2/x11/MN11:s B 
*I x2/x11/MN5:s B 
*I x2/x3/MN2:s B 
*I x2/x2/MN2:s B 
*I x2/x4/MN0:s B 
*I x2/x6/MN0:s B 
*I x2/x5/MN0:s B 
*I x2/x7/MN0:s B 
*I x3/x8/MN2:s B 
*I x3/x8/MN0:s B 
*I x3/x11/MN9:s B 
*I x3/x11/MN13:s B 
*I x3/x11/MN9\@2:s B 
*I x3/x11/MN7:s B 
*I x3/x11/MN8:s B 
*I x3/x11/MN1:s B 
*I x3/x11/MN15:s B 
*I x3/x11/MN0:s B 
*I x3/x11/MN6:s B 
*I x3/x11/MN17:s B 
*I x3/x11/MN2:d B 
*I x3/x11/MN4:s B 
*I x3/x11/MN11:s B 
*I x3/x11/MN5:s B 
*I x3/x3/MN2:s B 
*I x3/x2/MN2:s B 
*I x3/x4/MN0:s B 
*I x3/x6/MN0:s B 
*I x3/x5/MN0:s B 
*I x3/x7/MN0:s B 
*I x4/x8/MN2:s B 
*I x4/x8/MN0:s B 
*I x4/x11/MN9:s B 
*I x4/x11/MN13:s B 
*I x4/x11/MN9\@2:s B 
*I x4/x11/MN7:s B 
*I x4/x11/MN8:s B 
*I x4/x11/MN1:s B 
*I x4/x11/MN15:s B 
*I x4/x11/MN0:s B 
*I x4/x11/MN6:s B 
*I x4/x11/MN17:s B 
*I x4/x11/MN2:d B 
*I x4/x11/MN4:s B 
*I x4/x11/MN11:s B 
*I x4/x11/MN5:s B 
*I x4/x3/MN2:s B 
*I x4/x2/MN2:s B 
*I x4/x4/MN0:s B 
*I x4/x6/MN0:s B 
*I x4/x5/MN0:s B 
*I x4/x7/MN0:s B 
*I x5/x8/MN2:s B 
*I x5/x8/MN0:s B 
*I x5/x11/MN9:s B 
*I x5/x11/MN13:s B 
*I x5/x11/MN9\@2:s B 
*I x5/x11/MN7:s B 
*I x5/x11/MN8:s B 
*I x5/x11/MN1:s B 
*I x5/x11/MN15:s B 
*I x5/x11/MN0:s B 
*I x5/x11/MN6:s B 
*I x5/x11/MN17:s B 
*I x5/x11/MN2:d B 
*I x5/x11/MN4:s B 
*I x5/x11/MN11:s B 
*I x5/x11/MN5:s B 
*I x5/x3/MN2:s B 
*I x5/x2/MN2:s B 
*I x5/x4/MN0:s B 
*I x5/x6/MN0:s B 
*I x5/x5/MN0:s B 
*I x5/x7/MN0:s B 
*I x1/x8/MP1:s B 
*I x2/x8/MP1:s B 
*I x3/x8/MP1:s B 
*I x4/x8/MP1:s B 
*I x5/x8/MP1:s B 

*CAP
0 GND:23 X1/NET1:6 3.93536e-05 // $x=9.54 $y=0.975 $x2=6.385 $y2=2.39
1 GND:491 X1/NET1:6 2.46458e-06 // $x=10.81 $y=0.152 $x2=6.385 $y2=2.39
2 x1/x11/MN1:s X1/NET1:6 1.42629e-05 // $x=6.05 $y=1.945 $x2=6.385 $y2=2.39
3 GND:23 X1/NET1:17 0.000211536 // $x=9.54 $y=0.975 $x2=10.72 $y2=2.432
4 GND:54 X1/NET1:17 1.22987e-05 // $x=10.81 $y=0.152 $x2=10.72 $y2=2.432
5 x1/x11/MN0:s X1/NET1:17 5.47346e-06 // $x=6.88 $y=1.945 $x2=10.72 $y2=2.432
6 x1/x11/MN6:s X1/NET1:17 9.51863e-06 // $x=7.43 $y=1.945 $x2=10.72 $y2=2.432
7 x1/x11/MN2:d X1/NET1:17 5.26778e-06 // $x=9.24 $y=1.945 $x2=10.72 $y2=2.432
8 x1/x11/MN5:s X1/NET1:17 5.14041e-06 // $x=10.08 $y=1.945 $x2=10.72 $y2=2.432
9 GND:54 X1/NET1:22 6.78968e-06 // $x=10.81 $y=0.152 $x2=10.895 $y2=2.11
10 x1/x11/MN5:s X1/NET1:22 4.47768e-06 // $x=10.08 $y=1.945 $x2=10.895 $y2=2.11
11 GND:53 X1/NET1:23 8.66415e-05 // $x=20.37 $y=0.152 $x2=13.635 $y2=2.11
12 GND:23 X1/NET1:32 1.26184e-05 // $x=9.54 $y=0.975 $x2=6.385 $y2=2.39
13 GND:265 X1/NET1:32 2.40357e-07 // $x=5.705 $y=5.96 $x2=6.385 $y2=2.39
14 GND:23 X1/NET1:35 1.34159e-05 // $x=9.54 $y=0.975 $x2=6.525 $y2=2.39
15 x1/x11/MN1:s X1/NET1:35 1.81189e-06 // $x=6.05 $y=1.945 $x2=6.525 $y2=2.39
16 GND:53 X1/NET1:37 1.52424e-06 // $x=20.37 $y=0.152 $x2=11.355 $y2=2.155
17 x1/x11/MN5:s X1/NET1:37 4.11771e-06 // $x=10.08 $y=1.945 $x2=11.355 $y2=2.155
18 GND:53 X1/NET1:38 8.27781e-06 // $x=20.37 $y=0.152 $x2=11.19 $y2=2.157
19 GND:53 X1/NET1:39 6.04215e-06 // $x=20.37 $y=0.152 $x2=11.515 $y2=2.157
20 x1/x11/MN1:s X1/NET1:59 1.17652e-06 // $x=6.05 $y=1.945 $x2=6.34 $y2=3.29
21 x1/x11/MN6:s X1/NET1:67 6.35139e-07 // $x=7.43 $y=1.945 $x2=6.605 $y2=3.205
22 GND:47 X1/NET1:73 4.83331e-06 // $x=17.965 $y=8.727 $x2=12.975 $y2=7.855
23 GND:504 X1/NET1:73 1.23452e-05 // $x=14.63 $y=8.727 $x2=12.975 $y2=7.855
24 GND:518 X1/NET1:73 1.28014e-06 // $x=15.62 $y=8.727 $x2=12.975 $y2=7.855
25 x1/x2/MN2:s X1/NET1:73 1.65342e-06 // $x=11.845 $y=7.755 $x2=12.975 $y2=7.855
26 GND:23 X1/NET1:84 9.96303e-07 // $x=9.54 $y=0.975 $x2=6.595 $y2=2.605
27 GND:491 X1/NET1:84 1.25074e-06 // $x=10.81 $y=0.152 $x2=6.595 $y2=2.605
28 x1/x11/MN1:s X1/NET1:84 3.56926e-06 // $x=6.05 $y=1.945 $x2=6.595 $y2=2.605
29 x1/x11/MN0:s X1/NET1:84 3.16897e-06 // $x=6.88 $y=1.945 $x2=6.595 $y2=2.605
30 GND:23 x1/x11/MN1:d 5.57615e-06 // $x=9.54 $y=0.975 $x2=6.46 $y2=1.945
31 GND:491 x1/x11/MN1:d 3.5135e-05 // $x=10.81 $y=0.152 $x2=6.46 $y2=1.945
32 x1/x11/MN1:s x1/x11/MN1:d 4.89891e-05 // $x=6.05 $y=1.945 $x2=6.46 $y2=1.945
33 x1/x11/MN0:s x1/x11/MN1:d 4.9665e-05 // $x=6.88 $y=1.945 $x2=6.46 $y2=1.945
34 GND:53 x1/x3/MN1:s 2.18283e-06 // $x=20.37 $y=0.152 $x2=13.64 $y2=0.575
35 GND:500 x1/x3/MN1:s 1.12678e-05 // $x=14.63 $y=0.152 $x2=13.64 $y2=0.575
36 GND:516 x1/x3/MN1:s 1.33082e-06 // $x=15.62 $y=0.152 $x2=13.64 $y2=0.575
37 x1/x4/MN0:s x1/x3/MN1:s 8.67204e-06 // $x=14.59 $y=0.575 $x2=13.64 $y2=0.575
38 GND:24 X1/NET7:1 9.68878e-06 // $x=5.105 $y=0.975 $x2=0 $y2=0
39 GND:24 X1/NET7:2 3.59219e-06 // $x=5.105 $y=0.975 $x2=0 $y2=0
40 GND:23 X1/NET7:11 1.7508e-06 // $x=9.54 $y=0.975 $x2=13.02 $y2=6.442
41 x1/x11/MN1:s X1/NET7:11 2.10824e-06 // $x=6.05 $y=1.945 $x2=13.02 $y2=6.442
42 GND:23 X1/NET7:38 6.49768e-07 // $x=9.54 $y=0.975 $x2=11.19 $y2=2.157
43 GND:491 X1/NET7:38 4.7155e-07 // $x=10.81 $y=0.152 $x2=11.19 $y2=2.157
44 x1/x11/MN1:s X1/NET7:38 2.19147e-05 // $x=6.05 $y=1.945 $x2=11.19 $y2=2.157
45 x1/x11/MN9\@2:s X1/NET7:44 9.3746e-07 // $x=4.13 $y=1.945 $x2=12.977 $y2=5.782
46 x1/x11/MP15:g x1/x11/MP0:g 2.17433e-05 // $x=6.405 $y=5.165 $x2=12.977 $y2=6.045
47 GND:23 X1/NET7:47 6.20404e-06 // $x=9.54 $y=0.975 $x2=13.81 $y2=2.11
48 GND:491 X1/NET7:47 7.09103e-06 // $x=10.81 $y=0.152 $x2=13.81 $y2=2.11
49 x1/x11/MN1:s X1/NET7:47 1.57182e-05 // $x=6.05 $y=1.945 $x2=13.81 $y2=2.11
50 x1/x11/MN1:s X1/NET7:55 1.03408e-05 // $x=6.05 $y=1.945 $x2=6.175 $y2=3.71
51 GND:24 x1/x11/MN9:d 1.62615e-05 // $x=5.105 $y=0.975 $x2=0 $y2=0
52 GND:491 x1/x11/MN9:d 3.47047e-05 // $x=10.81 $y=0.152 $x2=0 $y2=0
53 x1/x11/MN9:s x1/x11/MN9:d 4.86931e-05 // $x=3.3 $y=1.945 $x2=0 $y2=0
54 x1/x11/MN9\@2:s x1/x11/MN9:d 4.88522e-05 // $x=4.13 $y=1.945 $x2=0 $y2=0
55 GND:24 X1/X11/N_3:3 1.05058e-05 // $x=5.105 $y=0.975 $x2=0 $y2=0
56 GND:24 X1/X11/N_3:6 1.58122e-05 // $x=5.105 $y=0.975 $x2=6.385 $y2=2.39
57 GND:491 X1/X11/N_3:6 3.9682e-07 // $x=10.81 $y=0.152 $x2=6.385 $y2=2.39
58 x1/x11/MN9\@2:s X1/X11/N_3:6 2.70586e-07 // $x=4.13 $y=1.945 $x2=6.385 $y2=2.39
59 x1/x11/MN7:s X1/X11/N_3:6 8.98385e-06 // $x=4.69 $y=1.945 $x2=6.385 $y2=2.39
60 GND:23 X1/X11/N_3:9 8.03347e-06 // $x=9.54 $y=0.975 $x2=12.975 $y2=6.442
61 x1/x11/MN8:s X1/X11/N_3:9 3.02248e-06 // $x=5.52 $y=1.945 $x2=12.975 $y2=6.442
62 GND:23 X1/X11/N_3:12 8.6206e-06 // $x=9.54 $y=0.975 $x2=13.02 $y2=6.445
63 x1/x11/MN0:s X1/X11/N_3:12 3.1598e-06 // $x=6.88 $y=1.945 $x2=13.02 $y2=6.445
64 GND:33 X1/X11/N_3:15 6.01623e-05 // $x=9.53 $y=7.895 $x2=13.81 $y2=2.14
65 GND:458 X1/X11/N_3:15 2.21619e-06 // $x=8.28 $y=7.972 $x2=13.81 $y2=2.14
66 x1/x11/MN17:s X1/X11/N_3:15 2.52905e-06 // $x=8.26 $y=6.265 $x2=13.81 $y2=2.14
67 GND:265 X1/X11/N_3:26 3.04463e-07 // $x=5.705 $y=5.96 $x2=12.975 $y2=6.28
68 GND:265 X1/X11/N_3:28 3.0384e-06 // $x=5.705 $y=5.96 $x2=13.065 $y2=5.782
69 GND:24 X1/X11/N_3:31 1.21522e-05 // $x=5.105 $y=0.975 $x2=6.385 $y2=2.39
70 x1/x11/MN7:s X1/X11/N_3:31 6.68452e-07 // $x=4.69 $y=1.945 $x2=6.385 $y2=2.39
71 x1/x11/MN0:s X1/X11/N_3:36 1.31015e-06 // $x=6.88 $y=1.945 $x2=11.355 $y2=2.157
72 GND:33 X1/X11/N_3:39 1.16344e-05 // $x=9.53 $y=7.895 $x2=11.515 $y2=2.157
73 GND:265 X1/X11/N_3:41 3.65119e-05 // $x=5.705 $y=5.96 $x2=13.02 $y2=6.445
74 GND:265 X1/X11/N_3:42 6.28161e-06 // $x=5.705 $y=5.96 $x2=13.02 $y2=6.28
75 GND:23 X1/X11/N_3:53 2.83009e-06 // $x=9.54 $y=0.975 $x2=0 $y2=0
76 GND:491 X1/X11/N_3:53 6.03412e-07 // $x=10.81 $y=0.152 $x2=0 $y2=0
77 x1/x11/MN8:s X1/X11/N_3:53 2.20015e-05 // $x=5.52 $y=1.945 $x2=0 $y2=0
78 GND:23 X1/X11/N_3:59 2.02814e-06 // $x=9.54 $y=0.975 $x2=6.34 $y2=3.29
79 GND:491 X1/X11/N_3:59 3.76607e-07 // $x=10.81 $y=0.152 $x2=6.34 $y2=3.29
80 x1/x11/MN0:s X1/X11/N_3:59 2.22849e-05 // $x=6.88 $y=1.945 $x2=6.34 $y2=3.29
81 GND:33 X1/X11/N_3:72 1.1966e-05 // $x=9.53 $y=7.895 $x2=12.975 $y2=6.245
82 GND:458 X1/X11/N_3:72 7.01257e-05 // $x=8.28 $y=7.972 $x2=12.975 $y2=6.245
83 x1/x11/MN15:s X1/X11/N_3:72 2.5083e-06 // $x=6.07 $y=6.265 $x2=12.975 $y2=6.245
84 x1/x11/MN17:s X1/X11/N_3:72 3.87386e-05 // $x=8.26 $y=6.265 $x2=12.975 $y2=6.245
85 GND:23 X1/X11/N_3:79 7.45647e-06 // $x=9.54 $y=0.975 $x2=13.78 $y2=2.11
86 GND:491 X1/X11/N_3:79 7.09103e-06 // $x=10.81 $y=0.152 $x2=13.78 $y2=2.11
87 x1/x11/MN8:s X1/X11/N_3:79 1.33952e-05 // $x=5.52 $y=1.945 $x2=13.78 $y2=2.11
88 GND:23 X1/X11/N_3:87 8.10299e-06 // $x=9.54 $y=0.975 $x2=12.947 $y2=8.125
89 GND:491 X1/X11/N_3:87 7.25569e-06 // $x=10.81 $y=0.152 $x2=12.947 $y2=8.125
90 x1/x11/MN0:s X1/X11/N_3:87 1.5273e-05 // $x=6.88 $y=1.945 $x2=12.947 $y2=8.125
91 x1/x11/MN6:s X1/X11/N_3:87 4.88396e-07 // $x=7.43 $y=1.945 $x2=12.947 $y2=8.125
92 GND:23 X1/X11/N_3:92 4.75259e-07 // $x=9.54 $y=0.975 $x2=0 $y2=0
93 x1/x11/MN8:s X1/X11/N_3:92 1.03408e-05 // $x=5.52 $y=1.945 $x2=0 $y2=0
94 GND:23 X1/X11/N_3:95 7.69101e-07 // $x=9.54 $y=0.975 $x2=6.05 $y2=3.195
95 x1/x11/MN0:s X1/X11/N_3:95 1.10932e-05 // $x=6.88 $y=1.945 $x2=6.05 $y2=3.195
96 GND:23 X1/NET8:17 2.99663e-05 // $x=9.54 $y=0.975 $x2=10.72 $y2=2.432
97 GND:491 X1/NET8:17 5.71678e-05 // $x=10.81 $y=0.152 $x2=10.72 $y2=2.432
98 x1/x11/MN6:s X1/NET8:17 4.54797e-05 // $x=7.43 $y=1.945 $x2=10.72 $y2=2.432
99 GND:23 X1/NET8:23 6.98808e-06 // $x=9.54 $y=0.975 $x2=13.635 $y2=2.11
100 GND:491 X1/NET8:23 5.8764e-07 // $x=10.81 $y=0.152 $x2=13.635 $y2=2.11
101 x1/x11/MN6:s X1/NET8:23 2.088e-05 // $x=7.43 $y=1.945 $x2=13.635 $y2=2.11
102 GND:491 x1/x11/MN6:d 3.84111e-06 // $x=10.81 $y=0.152 $x2=12.975 $y2=6.045
103 x1/x11/MN2:d x1/x11/MN6:d 7.59026e-06 // $x=9.24 $y=1.945 $x2=12.975 $y2=6.045
104 x1/x11/MN8:s X1/NET9:22 1.61539e-06 // $x=5.52 $y=1.945 $x2=10.895 $y2=2.11
105 GND:24 x1/x11/MN7:d 9.19204e-06 // $x=5.105 $y=0.975 $x2=6.385 $y2=2.39
106 GND:491 x1/x11/MN7:d 3.21376e-05 // $x=10.81 $y=0.152 $x2=6.385 $y2=2.39
107 x1/x11/MN7:s x1/x11/MN7:d 4.89468e-05 // $x=4.69 $y=1.945 $x2=6.385 $y2=2.39
108 x1/x11/MN8:s x1/x11/MN7:d 4.87586e-05 // $x=5.52 $y=1.945 $x2=6.385 $y2=2.39
109 GND:23 x1/x11/MP7:s 3.16817e-06 // $x=9.54 $y=0.975 $x2=0 $y2=0
110 GND:14 X1/NET4:2 1.32492e-05 // $x=0.83 $y=8.575 $x2=0 $y2=0
111 GND:34 X1/NET4:2 3.73026e-06 // $x=5.395 $y=7.895 $x2=0 $y2=0
112 GND:421 X1/NET4:2 7.29338e-06 // $x=1.29 $y=6.4 $x2=0 $y2=0
113 GND:21 X1/NET4:3 1.53894e-06 // $x=5.545 $y=5.96 $x2=0 $y2=0
114 GND:33 X1/NET4:3 6.30038e-05 // $x=9.53 $y=7.895 $x2=0 $y2=0
115 GND:265 X1/NET4:3 2.26015e-05 // $x=5.705 $y=5.96 $x2=0 $y2=0
116 GND:446 X1/NET4:3 5.3683e-07 // $x=5.715 $y=6.045 $x2=0 $y2=0
117 GND:447 X1/NET4:3 1.25474e-05 // $x=5.715 $y=7.065 $x2=0 $y2=0
118 GND:448 X1/NET4:3 3.26372e-06 // $x=6.01 $y=5.96 $x2=0 $y2=0
119 GND:459 X1/NET4:3 2.62744e-06 // $x=6.31 $y=7.972 $x2=0 $y2=0
120 x1/x11/MN15:s X1/NET4:3 1.36476e-05 // $x=6.07 $y=6.265 $x2=0 $y2=0
121 GND:21 X1/NET4:4 1.43218e-05 // $x=5.545 $y=5.96 $x2=0 $y2=0
122 GND:34 X1/NET4:4 3.52046e-05 // $x=5.395 $y=7.895 $x2=0 $y2=0
123 GND:265 X1/NET4:4 3.86169e-06 // $x=5.705 $y=5.96 $x2=0 $y2=0
124 GND:447 X1/NET4:4 1.56319e-06 // $x=5.715 $y=7.065 $x2=0 $y2=0
125 GND:459 X1/NET4:4 1.16991e-06 // $x=6.31 $y=7.972 $x2=0 $y2=0
126 GND:33 X1/NET4:5 5.21609e-05 // $x=9.53 $y=7.895 $x2=6.385 $y2=2.39
127 GND:458 X1/NET4:5 1.9405e-06 // $x=8.28 $y=7.972 $x2=6.385 $y2=2.39
128 GND:33 X1/NET4:6 4.06554e-05 // $x=9.53 $y=7.895 $x2=6.385 $y2=2.39
129 GND:458 X1/NET4:6 2.55478e-06 // $x=8.28 $y=7.972 $x2=6.385 $y2=2.39
130 GND:459 X1/NET4:6 1.2538e-06 // $x=6.31 $y=7.972 $x2=6.385 $y2=2.39
131 GND:1087 X1/NET4:6 2.03124e-06 // $x=6.18 $y=5.99 $x2=6.385 $y2=2.39
132 GND:1373 X1/NET4:6 8.45114e-06 // $x=6.405 $y=6.155 $x2=6.385 $y2=2.39
133 GND:1423 X1/NET4:6 3.84667e-07 // $x=6.405 $y=5.99 $x2=6.385 $y2=2.39
134 x1/x11/MN15:s X1/NET4:6 1.0591e-05 // $x=6.07 $y=6.265 $x2=6.385 $y2=2.39
135 GND:265 X1/NET4:11 8.12865e-06 // $x=5.705 $y=5.96 $x2=13.02 $y2=6.442
136 GND:33 X1/NET4:15 5.35544e-05 // $x=9.53 $y=7.895 $x2=13.81 $y2=2.14
137 GND:458 X1/NET4:15 3.37137e-07 // $x=8.28 $y=7.972 $x2=13.81 $y2=2.14
138 GND:489 X1/NET4:15 6.80184e-07 // $x=10.625 $y=8.727 $x2=13.81 $y2=2.14
139 x1/x11/MN17:s X1/NET4:15 1.52221e-05 // $x=8.26 $y=6.265 $x2=13.81 $y2=2.14
140 x1/x11/MN11:s X1/NET4:15 1.0732e-06 // $x=9.64 $y=6.265 $x2=13.81 $y2=2.14
141 GND:33 X1/NET4:19 3.98902e-06 // $x=9.53 $y=7.895 $x2=10.807 $y2=2.195
142 GND:14 X1/NET4:26 1.48267e-05 // $x=0.83 $y=8.575 $x2=12.975 $y2=6.28
143 GND:17 X1/NET4:26 5.7625e-07 // $x=3.425 $y=8.727 $x2=12.975 $y2=6.28
144 GND:34 X1/NET4:26 4.11557e-06 // $x=5.395 $y=7.895 $x2=12.975 $y2=6.28
145 GND:410 X1/NET4:26 5.61707e-07 // $x=3.425 $y=8.727 $x2=12.975 $y2=6.28
146 GND:421 X1/NET4:26 5.26895e-06 // $x=1.29 $y=6.4 $x2=12.975 $y2=6.28
147 GND:14 X1/NET4:32 1.26924e-05 // $x=0.83 $y=8.575 $x2=6.385 $y2=2.39
148 GND:17 X1/NET4:32 1.19432e-05 // $x=3.425 $y=8.727 $x2=6.385 $y2=2.39
149 GND:34 X1/NET4:32 8.52963e-07 // $x=5.395 $y=7.895 $x2=6.385 $y2=2.39
150 GND:410 X1/NET4:32 3.26999e-06 // $x=3.425 $y=8.727 $x2=6.385 $y2=2.39
151 GND:421 X1/NET4:32 3.57096e-06 // $x=1.29 $y=6.4 $x2=6.385 $y2=2.39
152 GND:48 X1/NET4:47 7.65728e-06 // $x=10.625 $y=8.727 $x2=13.81 $y2=2.11
153 x1/x11/MN11:s X1/NET4:47 3.22459e-06 // $x=9.64 $y=6.265 $x2=13.81 $y2=2.11
154 GND:14 X1/NET4:50 7.15468e-06 // $x=0.83 $y=8.575 $x2=13.81 $y2=2.14
155 GND:17 X1/NET4:50 3.58507e-06 // $x=3.425 $y=8.727 $x2=13.81 $y2=2.14
156 GND:33 X1/NET4:55 4.81245e-06 // $x=9.53 $y=7.895 $x2=6.175 $y2=3.71
157 GND:1087 X1/NET4:55 9.02045e-07 // $x=6.18 $y=5.99 $x2=6.175 $y2=3.71
158 GND:1373 X1/NET4:55 3.41362e-06 // $x=6.405 $y=6.155 $x2=6.175 $y2=3.71
159 GND:1423 X1/NET4:55 3.32672e-07 // $x=6.405 $y=5.99 $x2=6.175 $y2=3.71
160 x1/x11/MN15:s X1/NET4:55 3.3236e-06 // $x=6.07 $y=6.265 $x2=6.175 $y2=3.71
161 GND:265 X1/NET4:61 8.01586e-06 // $x=5.705 $y=5.96 $x2=6.595 $y2=2.1
162 GND:17 X1/NET4:72 5.55689e-06 // $x=3.425 $y=8.727 $x2=12.975 $y2=6.245
163 GND:33 X1/NET4:74 2.19354e-05 // $x=9.53 $y=7.895 $x2=12.975 $y2=6.4
164 GND:34 X1/NET4:74 7.82858e-05 // $x=5.395 $y=7.895 $x2=12.975 $y2=6.4
165 GND:265 X1/NET4:74 3.1315e-05 // $x=5.705 $y=5.96 $x2=12.975 $y2=6.4
166 GND:33 X1/NET4:76 5.10362e-06 // $x=9.53 $y=7.895 $x2=13.78 $y2=0.755
167 GND:265 X1/NET4:76 1.85987e-05 // $x=5.705 $y=5.96 $x2=13.78 $y2=0.755
168 GND:33 X1/NET4:77 2.80359e-05 // $x=9.53 $y=7.895 $x2=0 $y2=0
169 GND:33 X1/NET4:78 1.16833e-05 // $x=9.53 $y=7.895 $x2=0 $y2=0
170 GND:265 X1/NET4:80 2.96145e-05 // $x=5.705 $y=5.96 $x2=13.78 $y2=2.11
171 GND:33 X1/NET4:81 2.25992e-05 // $x=9.53 $y=7.895 $x2=13.78 $y2=3.295
172 GND:33 X1/NET4:82 2.33638e-05 // $x=9.53 $y=7.895 $x2=0 $y2=0
173 GND:33 X1/NET4:85 3.59708e-05 // $x=9.53 $y=7.895 $x2=12.947 $y2=6.075
174 GND:34 X1/NET4:89 1.39078e-05 // $x=5.395 $y=7.895 $x2=6.46 $y2=1.945
175 GND:33 X1/NET4:93 4.66387e-06 // $x=9.53 $y=7.895 $x2=0 $y2=0
176 GND:33 X1/NET4:96 4.76001e-06 // $x=9.53 $y=7.895 $x2=12.795 $y2=5.015
177 GND:14 X1/NET4:108 3.64811e-07 // $x=0.83 $y=8.575 $x2=0 $y2=0
178 GND:17 X1/NET4:108 2.15467e-06 // $x=3.425 $y=8.727 $x2=0 $y2=0
179 GND:410 X1/NET4:108 1.37276e-05 // $x=3.425 $y=8.727 $x2=0 $y2=0
180 GND:419 X1/NET4:108 1.49017e-05 // $x=1.29 $y=7.855 $x2=0 $y2=0
181 GND:421 X1/NET4:108 1.74706e-05 // $x=1.29 $y=6.4 $x2=0 $y2=0
182 GND:21 X1/NET4:113 2.9123e-05 // $x=5.545 $y=5.96 $x2=0 $y2=0
183 GND:34 X1/NET4:113 2.84779e-06 // $x=5.395 $y=7.895 $x2=0 $y2=0
184 GND:265 X1/NET4:113 2.30747e-06 // $x=5.705 $y=5.96 $x2=0 $y2=0
185 GND:446 X1/NET4:113 2.10422e-05 // $x=5.715 $y=6.045 $x2=0 $y2=0
186 GND:459 X1/NET4:113 5.63452e-06 // $x=6.31 $y=7.972 $x2=0 $y2=0
187 GND:1087 X1/NET4:113 5.50404e-07 // $x=6.18 $y=5.99 $x2=0 $y2=0
188 GND:21 X1/NET4:117 5.3683e-07 // $x=5.545 $y=5.96 $x2=0 $y2=0
189 GND:33 X1/NET4:117 2.36066e-06 // $x=9.53 $y=7.895 $x2=0 $y2=0
190 GND:34 X1/NET4:117 4.09328e-06 // $x=5.395 $y=7.895 $x2=0 $y2=0
191 GND:265 X1/NET4:117 6.83827e-07 // $x=5.705 $y=5.96 $x2=0 $y2=0
192 GND:447 X1/NET4:117 4.82947e-05 // $x=5.715 $y=7.065 $x2=0 $y2=0
193 GND:459 X1/NET4:117 9.94423e-06 // $x=6.31 $y=7.972 $x2=0 $y2=0
194 x1/x11/MN13:s X1/NET4:117 2.06804e-06 // $x=3.77 $y=6.265 $x2=0 $y2=0
195 x1/x11/MN15:s X1/NET4:117 1.6195e-06 // $x=6.07 $y=6.265 $x2=0 $y2=0
196 x1/x11/MN17:s X1/NET4:122 2.82849e-05 // $x=8.26 $y=6.265 $x2=0 $y2=0
197 GND:33 X1/NET4:128 2.3418e-07 // $x=9.53 $y=7.895 $x2=0 $y2=0
198 GND:48 X1/NET4:134 2.3117e-06 // $x=10.625 $y=8.727 $x2=0 $y2=0
199 x1/x11/MN11:s X1/NET4:134 2.73609e-05 // $x=9.64 $y=6.265 $x2=0 $y2=0
200 GND:21 X1/NET4:142 1.65685e-05 // $x=5.545 $y=5.96 $x2=0 $y2=0
201 GND:265 X1/NET4:142 1.15351e-06 // $x=5.705 $y=5.96 $x2=0 $y2=0
202 GND:1087 X1/NET4:142 2.26924e-07 // $x=6.18 $y=5.99 $x2=0 $y2=0
203 GND:1423 X1/NET4:142 2.26585e-07 // $x=6.405 $y=5.99 $x2=0 $y2=0
204 GND:458 X1/NET4:151 1.61684e-06 // $x=8.28 $y=7.972 $x2=0 $y2=0
205 GND:265 x1/x11/MP12:g 4.03607e-07 // $x=5.705 $y=5.96 $x2=0 $y2=0
206 x1/x11/MP13:g x1/x11/MP12:g 4.95811e-05 // $x=4.105 $y=5.165 $x2=0 $y2=0
207 x1/x11/MP15:g x1/x11/MP14:g 4.9403e-05 // $x=6.405 $y=5.165 $x2=0 $y2=0
208 GND:34 X1/NET4:168 5.04231e-06 // $x=5.395 $y=7.895 $x2=0 $y2=0
209 GND:447 X1/NET4:168 1.20089e-06 // $x=5.715 $y=7.065 $x2=0 $y2=0
210 GND:459 X1/NET4:168 4.84368e-06 // $x=6.31 $y=7.972 $x2=0 $y2=0
211 GND:1368 X1/NET4:168 4.95811e-05 // $x=4.105 $y=6.155 $x2=0 $y2=0
212 GND:33 X1/NET4:173 3.89132e-06 // $x=9.53 $y=7.895 $x2=0 $y2=0
213 GND:458 X1/NET4:173 4.84368e-06 // $x=8.28 $y=7.972 $x2=0 $y2=0
214 GND:1373 X1/NET4:173 4.9403e-05 // $x=6.405 $y=6.155 $x2=0 $y2=0
215 GND:33 X1/NET4:178 3.78232e-06 // $x=9.53 $y=7.895 $x2=0 $y2=0
216 GND:458 X1/NET4:178 4.84368e-06 // $x=8.28 $y=7.972 $x2=0 $y2=0
217 GND:33 X1/NET4:183 7.84769e-06 // $x=9.53 $y=7.895 $x2=0 $y2=0
218 GND:458 X1/NET4:183 6.45201e-06 // $x=8.28 $y=7.972 $x2=0 $y2=0
219 x1/x11/MN17:s X1/NET4:183 1.57508e-05 // $x=8.26 $y=6.265 $x2=0 $y2=0
220 GND:33 X1/NET4:188 3.80498e-06 // $x=9.53 $y=7.895 $x2=0 $y2=0
221 GND:489 X1/NET4:188 4.84368e-06 // $x=10.625 $y=8.727 $x2=0 $y2=0
222 x1/x11/MN17:s X1/NET4:188 1.65495e-06 // $x=8.26 $y=6.265 $x2=0 $y2=0
223 GND:33 X1/NET4:193 2.10578e-06 // $x=9.53 $y=7.895 $x2=0 $y2=0
224 GND:48 X1/NET4:193 5.94427e-06 // $x=10.625 $y=8.727 $x2=0 $y2=0
225 GND:489 X1/NET4:193 6.39824e-06 // $x=10.625 $y=8.727 $x2=0 $y2=0
226 x1/x11/MN11:s X1/NET4:193 2.14446e-05 // $x=9.64 $y=6.265 $x2=0 $y2=0
227 GND:21 X1/NET4:198 4.17544e-06 // $x=5.545 $y=5.96 $x2=0 $y2=0
228 GND:446 X1/NET4:198 4.81106e-07 // $x=5.715 $y=6.045 $x2=0 $y2=0
229 GND:1087 X1/NET4:198 2.26675e-07 // $x=6.18 $y=5.99 $x2=0 $y2=0
230 GND:1418 X1/NET4:198 5.22188e-05 // $x=4.105 $y=5.99 $x2=0 $y2=0
231 GND:1423 X1/NET4:198 3.076e-06 // $x=6.405 $y=5.99 $x2=0 $y2=0
232 GND:1423 X1/NET4:203 5.20406e-05 // $x=6.405 $y=5.99 $x2=0 $y2=0
233 GND:1423 X1/NET4:208 1.07808e-06 // $x=6.405 $y=5.99 $x2=0 $y2=0
234 x1/x11/MN17:s X1/NET4:213 1.15373e-05 // $x=8.26 $y=6.265 $x2=0 $y2=0
235 x1/x11/MN11:s X1/NET4:223 1.18865e-05 // $x=9.64 $y=6.265 $x2=0 $y2=0
236 GND:14 x1/x8/MP1:d 3.64811e-07 // $x=0.83 $y=8.575 $x2=0 $y2=0
237 GND:253 x1/x8/MP1:d 7.30771e-06 // $x=1.29 $y=6.4 $x2=0 $y2=0
238 GND:421 x1/x8/MP1:d 4.47144e-06 // $x=1.29 $y=6.4 $x2=0 $y2=0
239 GND:1047 x1/x8/MP1:d 6.52599e-05 // $x=1.262 $y=6.245 $x2=0 $y2=0
240 x1/x8/MP1:s x1/x8/MP1:d 5.01459e-05 // $x=1.11 $y=5.015 $x2=0 $y2=0
241 GND:71 X2/NET1:6 3.93536e-05 // $x=26.76 $y=0.975 $x2=6.385 $y2=2.39
242 GND:619 X2/NET1:6 2.46458e-06 // $x=28.03 $y=0.152 $x2=6.385 $y2=2.39
243 x2/x11/MN1:s X2/NET1:6 1.42629e-05 // $x=23.27 $y=1.945 $x2=6.385 $y2=2.39
244 GND:71 X2/NET1:17 0.000211536 // $x=26.76 $y=0.975 $x2=10.72 $y2=2.432
245 GND:102 X2/NET1:17 1.22987e-05 // $x=28.03 $y=0.152 $x2=10.72 $y2=2.432
246 x2/x11/MN0:s X2/NET1:17 5.47346e-06 // $x=24.1 $y=1.945 $x2=10.72 $y2=2.432
247 x2/x11/MN6:s X2/NET1:17 9.51863e-06 // $x=24.65 $y=1.945 $x2=10.72 $y2=2.432
248 x2/x11/MN2:d X2/NET1:17 5.26778e-06 // $x=26.46 $y=1.945 $x2=10.72 $y2=2.432
249 x2/x11/MN5:s X2/NET1:17 5.14041e-06 // $x=27.3 $y=1.945 $x2=10.72 $y2=2.432
250 GND:102 X2/NET1:22 6.78968e-06 // $x=28.03 $y=0.152 $x2=10.895 $y2=2.11
251 x2/x11/MN5:s X2/NET1:22 4.47768e-06 // $x=27.3 $y=1.945 $x2=10.895 $y2=2.11
252 GND:101 X2/NET1:23 8.66415e-05 // $x=37.59 $y=0.152 $x2=13.635 $y2=2.11
253 GND:71 X2/NET1:32 1.26184e-05 // $x=26.76 $y=0.975 $x2=6.385 $y2=2.39
254 GND:286 X2/NET1:32 2.40357e-07 // $x=22.925 $y=5.96 $x2=6.385 $y2=2.39
255 GND:71 X2/NET1:35 1.34159e-05 // $x=26.76 $y=0.975 $x2=6.525 $y2=2.39
256 x2/x11/MN1:s X2/NET1:35 1.81189e-06 // $x=23.27 $y=1.945 $x2=6.525 $y2=2.39
257 GND:101 X2/NET1:37 1.52424e-06 // $x=37.59 $y=0.152 $x2=11.355 $y2=2.155
258 x2/x11/MN5:s X2/NET1:37 4.11771e-06 // $x=27.3 $y=1.945 $x2=11.355 $y2=2.155
259 GND:101 X2/NET1:38 8.27781e-06 // $x=37.59 $y=0.152 $x2=11.19 $y2=2.157
260 GND:101 X2/NET1:39 6.04215e-06 // $x=37.59 $y=0.152 $x2=11.515 $y2=2.157
261 x2/x11/MN1:s X2/NET1:59 1.17652e-06 // $x=23.27 $y=1.945 $x2=6.34 $y2=3.29
262 x2/x11/MN6:s X2/NET1:67 6.35139e-07 // $x=24.65 $y=1.945 $x2=6.605 $y2=3.205
263 GND:95 X2/NET1:73 4.83331e-06 // $x=35.185 $y=8.727 $x2=12.975 $y2=7.855
264 GND:632 X2/NET1:73 1.23452e-05 // $x=31.85 $y=8.727 $x2=12.975 $y2=7.855
265 GND:646 X2/NET1:73 1.28014e-06 // $x=32.84 $y=8.727 $x2=12.975 $y2=7.855
266 x2/x2/MN2:s X2/NET1:73 1.65342e-06 // $x=29.065 $y=7.755 $x2=12.975 $y2=7.855
267 GND:71 X2/NET1:84 9.96303e-07 // $x=26.76 $y=0.975 $x2=6.595 $y2=2.605
268 GND:619 X2/NET1:84 1.25074e-06 // $x=28.03 $y=0.152 $x2=6.595 $y2=2.605
269 x2/x11/MN1:s X2/NET1:84 3.56926e-06 // $x=23.27 $y=1.945 $x2=6.595 $y2=2.605
270 x2/x11/MN0:s X2/NET1:84 3.16897e-06 // $x=24.1 $y=1.945 $x2=6.595 $y2=2.605
271 GND:71 x2/x11/MN1:d 5.57615e-06 // $x=26.76 $y=0.975 $x2=6.46 $y2=1.945
272 GND:619 x2/x11/MN1:d 3.5135e-05 // $x=28.03 $y=0.152 $x2=6.46 $y2=1.945
273 x2/x11/MN1:s x2/x11/MN1:d 4.89891e-05 // $x=23.27 $y=1.945 $x2=6.46 $y2=1.945
274 x2/x11/MN0:s x2/x11/MN1:d 4.9665e-05 // $x=24.1 $y=1.945 $x2=6.46 $y2=1.945
275 GND:101 x2/x3/MN1:s 2.18283e-06 // $x=37.59 $y=0.152 $x2=13.64 $y2=0.575
276 GND:628 x2/x3/MN1:s 1.12678e-05 // $x=31.85 $y=0.152 $x2=13.64 $y2=0.575
277 GND:644 x2/x3/MN1:s 1.33082e-06 // $x=32.84 $y=0.152 $x2=13.64 $y2=0.575
278 x2/x4/MN0:s x2/x3/MN1:s 8.67204e-06 // $x=31.81 $y=0.575 $x2=13.64 $y2=0.575
279 GND:72 X2/NET7:1 9.68878e-06 // $x=22.325 $y=0.975 $x2=0 $y2=0
280 GND:72 X2/NET7:2 3.59219e-06 // $x=22.325 $y=0.975 $x2=0 $y2=0
281 GND:71 X2/NET7:11 1.7508e-06 // $x=26.76 $y=0.975 $x2=13.02 $y2=6.442
282 x2/x11/MN1:s X2/NET7:11 2.10824e-06 // $x=23.27 $y=1.945 $x2=13.02 $y2=6.442
283 GND:71 X2/NET7:38 6.49768e-07 // $x=26.76 $y=0.975 $x2=11.19 $y2=2.157
284 GND:619 X2/NET7:38 4.7155e-07 // $x=28.03 $y=0.152 $x2=11.19 $y2=2.157
285 x2/x11/MN1:s X2/NET7:38 2.19147e-05 // $x=23.27 $y=1.945 $x2=11.19 $y2=2.157
286 x2/x11/MN9\@2:s X2/NET7:44 9.3746e-07 // $x=21.35 $y=1.945 $x2=12.977 $y2=5.782
287 x2/x11/MP15:g x2/x11/MP0:g 2.17433e-05 // $x=23.625 $y=5.165 $x2=12.977 $y2=6.045
288 GND:71 X2/NET7:47 6.20404e-06 // $x=26.76 $y=0.975 $x2=13.81 $y2=2.11
289 GND:619 X2/NET7:47 7.09103e-06 // $x=28.03 $y=0.152 $x2=13.81 $y2=2.11
290 x2/x11/MN1:s X2/NET7:47 1.57182e-05 // $x=23.27 $y=1.945 $x2=13.81 $y2=2.11
291 x2/x11/MN1:s X2/NET7:55 1.03408e-05 // $x=23.27 $y=1.945 $x2=6.175 $y2=3.71
292 GND:72 x2/x11/MN9:d 1.62615e-05 // $x=22.325 $y=0.975 $x2=0 $y2=0
293 GND:619 x2/x11/MN9:d 3.47047e-05 // $x=28.03 $y=0.152 $x2=0 $y2=0
294 x2/x11/MN9:s x2/x11/MN9:d 4.86931e-05 // $x=20.52 $y=1.945 $x2=0 $y2=0
295 x2/x11/MN9\@2:s x2/x11/MN9:d 4.88522e-05 // $x=21.35 $y=1.945 $x2=0 $y2=0
296 GND:72 X2/X11/N_3:3 1.05058e-05 // $x=22.325 $y=0.975 $x2=0 $y2=0
297 GND:72 X2/X11/N_3:6 1.58122e-05 // $x=22.325 $y=0.975 $x2=6.385 $y2=2.39
298 GND:619 X2/X11/N_3:6 3.9682e-07 // $x=28.03 $y=0.152 $x2=6.385 $y2=2.39
299 x2/x11/MN9\@2:s X2/X11/N_3:6 2.70586e-07 // $x=21.35 $y=1.945 $x2=6.385 $y2=2.39
300 x2/x11/MN7:s X2/X11/N_3:6 8.98385e-06 // $x=21.91 $y=1.945 $x2=6.385 $y2=2.39
301 GND:71 X2/X11/N_3:9 8.03347e-06 // $x=26.76 $y=0.975 $x2=12.975 $y2=6.442
302 x2/x11/MN8:s X2/X11/N_3:9 3.02248e-06 // $x=22.74 $y=1.945 $x2=12.975 $y2=6.442
303 GND:71 X2/X11/N_3:12 8.6206e-06 // $x=26.76 $y=0.975 $x2=13.02 $y2=6.445
304 x2/x11/MN0:s X2/X11/N_3:12 3.1598e-06 // $x=24.1 $y=1.945 $x2=13.02 $y2=6.445
305 GND:81 X2/X11/N_3:15 6.01623e-05 // $x=26.75 $y=7.895 $x2=13.81 $y2=2.14
306 GND:586 X2/X11/N_3:15 2.21619e-06 // $x=25.5 $y=7.972 $x2=13.81 $y2=2.14
307 x2/x11/MN17:s X2/X11/N_3:15 2.52905e-06 // $x=25.48 $y=6.265 $x2=13.81 $y2=2.14
308 GND:286 X2/X11/N_3:26 3.04463e-07 // $x=22.925 $y=5.96 $x2=12.975 $y2=6.28
309 GND:286 X2/X11/N_3:28 3.0384e-06 // $x=22.925 $y=5.96 $x2=13.065 $y2=5.782
310 GND:72 X2/X11/N_3:31 1.21522e-05 // $x=22.325 $y=0.975 $x2=6.385 $y2=2.39
311 x2/x11/MN7:s X2/X11/N_3:31 6.68452e-07 // $x=21.91 $y=1.945 $x2=6.385 $y2=2.39
312 x2/x11/MN0:s X2/X11/N_3:36 1.31015e-06 // $x=24.1 $y=1.945 $x2=11.355 $y2=2.157
313 GND:81 X2/X11/N_3:39 1.16344e-05 // $x=26.75 $y=7.895 $x2=11.515 $y2=2.157
314 GND:286 X2/X11/N_3:41 3.65119e-05 // $x=22.925 $y=5.96 $x2=13.02 $y2=6.445
315 GND:286 X2/X11/N_3:42 6.28161e-06 // $x=22.925 $y=5.96 $x2=13.02 $y2=6.28
316 GND:71 X2/X11/N_3:53 2.83009e-06 // $x=26.76 $y=0.975 $x2=0 $y2=0
317 GND:619 X2/X11/N_3:53 6.03412e-07 // $x=28.03 $y=0.152 $x2=0 $y2=0
318 x2/x11/MN8:s X2/X11/N_3:53 2.20015e-05 // $x=22.74 $y=1.945 $x2=0 $y2=0
319 GND:71 X2/X11/N_3:59 2.02814e-06 // $x=26.76 $y=0.975 $x2=6.34 $y2=3.29
320 GND:619 X2/X11/N_3:59 3.76607e-07 // $x=28.03 $y=0.152 $x2=6.34 $y2=3.29
321 x2/x11/MN0:s X2/X11/N_3:59 2.22849e-05 // $x=24.1 $y=1.945 $x2=6.34 $y2=3.29
322 GND:81 X2/X11/N_3:72 1.1966e-05 // $x=26.75 $y=7.895 $x2=12.975 $y2=6.245
323 GND:586 X2/X11/N_3:72 7.01257e-05 // $x=25.5 $y=7.972 $x2=12.975 $y2=6.245
324 x2/x11/MN15:s X2/X11/N_3:72 2.5083e-06 // $x=23.29 $y=6.265 $x2=12.975 $y2=6.245
325 x2/x11/MN17:s X2/X11/N_3:72 3.87386e-05 // $x=25.48 $y=6.265 $x2=12.975 $y2=6.245
326 GND:71 X2/X11/N_3:79 7.45647e-06 // $x=26.76 $y=0.975 $x2=13.78 $y2=2.11
327 GND:619 X2/X11/N_3:79 7.09103e-06 // $x=28.03 $y=0.152 $x2=13.78 $y2=2.11
328 x2/x11/MN8:s X2/X11/N_3:79 1.33952e-05 // $x=22.74 $y=1.945 $x2=13.78 $y2=2.11
329 GND:71 X2/X11/N_3:87 8.10299e-06 // $x=26.76 $y=0.975 $x2=12.947 $y2=8.125
330 GND:619 X2/X11/N_3:87 7.25569e-06 // $x=28.03 $y=0.152 $x2=12.947 $y2=8.125
331 x2/x11/MN0:s X2/X11/N_3:87 1.5273e-05 // $x=24.1 $y=1.945 $x2=12.947 $y2=8.125
332 x2/x11/MN6:s X2/X11/N_3:87 4.88396e-07 // $x=24.65 $y=1.945 $x2=12.947 $y2=8.125
333 GND:71 X2/X11/N_3:92 4.75259e-07 // $x=26.76 $y=0.975 $x2=0 $y2=0
334 x2/x11/MN8:s X2/X11/N_3:92 1.03408e-05 // $x=22.74 $y=1.945 $x2=0 $y2=0
335 GND:71 X2/X11/N_3:95 7.69101e-07 // $x=26.76 $y=0.975 $x2=6.05 $y2=3.195
336 x2/x11/MN0:s X2/X11/N_3:95 1.10932e-05 // $x=24.1 $y=1.945 $x2=6.05 $y2=3.195
337 GND:71 X2/NET8:17 2.99663e-05 // $x=26.76 $y=0.975 $x2=10.72 $y2=2.432
338 GND:619 X2/NET8:17 5.71678e-05 // $x=28.03 $y=0.152 $x2=10.72 $y2=2.432
339 x2/x11/MN6:s X2/NET8:17 4.54797e-05 // $x=24.65 $y=1.945 $x2=10.72 $y2=2.432
340 GND:71 X2/NET8:23 6.98808e-06 // $x=26.76 $y=0.975 $x2=13.635 $y2=2.11
341 GND:619 X2/NET8:23 5.8764e-07 // $x=28.03 $y=0.152 $x2=13.635 $y2=2.11
342 x2/x11/MN6:s X2/NET8:23 2.088e-05 // $x=24.65 $y=1.945 $x2=13.635 $y2=2.11
343 GND:619 x2/x11/MN6:d 3.84111e-06 // $x=28.03 $y=0.152 $x2=12.975 $y2=6.045
344 x2/x11/MN2:d x2/x11/MN6:d 7.59026e-06 // $x=26.46 $y=1.945 $x2=12.975 $y2=6.045
345 x2/x11/MN8:s X2/NET9:22 1.61539e-06 // $x=22.74 $y=1.945 $x2=10.895 $y2=2.11
346 GND:72 x2/x11/MN7:d 9.19204e-06 // $x=22.325 $y=0.975 $x2=6.385 $y2=2.39
347 GND:619 x2/x11/MN7:d 3.21376e-05 // $x=28.03 $y=0.152 $x2=6.385 $y2=2.39
348 x2/x11/MN7:s x2/x11/MN7:d 4.89468e-05 // $x=21.91 $y=1.945 $x2=6.385 $y2=2.39
349 x2/x11/MN8:s x2/x11/MN7:d 4.87586e-05 // $x=22.74 $y=1.945 $x2=6.385 $y2=2.39
350 GND:71 x2/x11/MP7:s 3.16817e-06 // $x=26.76 $y=0.975 $x2=0 $y2=0
351 GND:60 X2/NET4:2 1.32492e-05 // $x=18.05 $y=8.575 $x2=0 $y2=0
352 GND:82 X2/NET4:2 3.73026e-06 // $x=22.615 $y=7.895 $x2=0 $y2=0
353 GND:549 X2/NET4:2 7.29338e-06 // $x=18.51 $y=6.4 $x2=0 $y2=0
354 GND:69 X2/NET4:3 1.53894e-06 // $x=22.765 $y=5.96 $x2=0 $y2=0
355 GND:81 X2/NET4:3 6.30038e-05 // $x=26.75 $y=7.895 $x2=0 $y2=0
356 GND:286 X2/NET4:3 2.26015e-05 // $x=22.925 $y=5.96 $x2=0 $y2=0
357 GND:574 X2/NET4:3 5.3683e-07 // $x=22.935 $y=6.045 $x2=0 $y2=0
358 GND:575 X2/NET4:3 1.25474e-05 // $x=22.935 $y=7.065 $x2=0 $y2=0
359 GND:576 X2/NET4:3 3.26372e-06 // $x=23.23 $y=5.96 $x2=0 $y2=0
360 GND:587 X2/NET4:3 2.62744e-06 // $x=23.53 $y=7.972 $x2=0 $y2=0