*SPEF "2.0"
*DESIGN "SKY130_OSU_RING_OSCILLATOR_MPR2XA_8"
*DATE "Fri Oct 27 10:31:13 2023"
*VENDOR "Mentor Graphics Corp."
*PROGRAM "Calibre xRC"
*VERSION "v2023.2_27.15"
*DESIGN_FLOW "extraction"
*DIVIDER /
*DELIMITER :
*BUS_DELIMITER []
*T_UNIT 1 NS
*C_UNIT 1 PF
*R_UNIT 1 OHM
*L_UNIT 1 HENRY



// CIRCUIT TEMPERATURE 30C
// NOMINAL TEMPERATURE 30C

*PORTS 
 X5_Y1 B
 VDD B
 X4_Y1 B
 X3_Y1 B
 X2_Y1 B
 X1_Y1 B
 GND B
 S5 B
 S4 B
 S3 B
 S2 B
 S1 B

*D_NET X1/NET9 0.00254145
*CONN
*I x1/x1/MN8:g I 
*I x1/x1/MN3:g I 
*I x1/x1/MP7:g I 
*I x1/x1/MP2:g I 

*CAP
0 X1/NET9:2 NET5:2 6.48122e-06 // $x=2.345 $y=2.58 $x2=1.385 $y2=2.745
1 X1/NET9:42 NET5:2 2.58912e-07 // $x=2.345 $y=2.58 $x2=1.385 $y2=2.745
2 X1/NET9:2 NET5:3 7.85135e-06 // $x=2.345 $y=2.58 $x2=1.795 $y2=2.44
3 X1/NET9:42 NET5:3 1.11053e-06 // $x=2.345 $y=2.58 $x2=1.795 $y2=2.44
4 X1/NET9:2 NET5:7 1.50869e-05 // $x=2.345 $y=2.58 $x2=2.44 $y2=2.02
5 X1/NET9:12 NET5:7 6.90791e-06 // $x=2.475 $y=2.58 $x2=2.44 $y2=2.02
6 X1/NET9:42 NET5:7 7.96219e-07 // $x=2.345 $y=2.58 $x2=2.44 $y2=2.02
7 X1/NET9:57 NET5:7 4.35e-06 // $x=2.345 $y=2.495 $x2=2.44 $y2=2.02
8 X1/NET9:57 NET5:8 4.47269e-07 // $x=2.345 $y=2.495 $x2=2.145 $y2=2.02
9 X1/NET9:2 NET5:18 7.93425e-06 // $x=2.345 $y=2.58 $x2=2.585 $y2=2.02
10 X1/NET9:11 NET5:18 7.18147e-06 // $x=2.805 $y=2.58 $x2=2.585 $y2=2.02
11 X1/NET9:12 NET5:18 8.38159e-07 // $x=2.475 $y=2.58 $x2=2.585 $y2=2.02
12 X1/NET9:57 NET5:18 6.1211e-07 // $x=2.345 $y=2.495 $x2=2.585 $y2=2.02
13 X1/NET9:11 NET5:37 3.41004e-06 // $x=2.805 $y=2.58 $x2=9.89 $y2=0.84
14 X1/NET9:12 NET5:37 4.16182e-06 // $x=2.475 $y=2.58 $x2=9.89 $y2=0.84
15 X1/NET9:23 NET5:37 6.0284e-06 // $x=3.07 $y=2.58 $x2=9.89 $y2=0.84
16 X1/NET9:26 NET5:37 5.09778e-07 // $x=3.07 $y=2.58 $x2=9.89 $y2=0.84
17 X1/NET9:39 NET5:37 4.48292e-06 // $x=5.06 $y=2.662 $x2=9.89 $y2=0.84
18 X1/NET9:2 NET5:59 3.34869e-07 // $x=2.345 $y=2.58 $x2=1.96 $y2=2.02
19 X1/NET9:12 NET5:59 3.22871e-06 // $x=2.475 $y=2.58 $x2=1.96 $y2=2.02
20 X1/NET9:57 NET5:59 3.75175e-07 // $x=2.345 $y=2.495 $x2=1.96 $y2=2.02
21 X1/NET9:2 NET5:89 3.23587e-06 // $x=2.345 $y=2.58 $x2=2.705 $y2=2.575
22 X1/NET9:11 NET5:89 1.80043e-06 // $x=2.805 $y=2.58 $x2=2.705 $y2=2.575
23 X1/NET9:12 NET5:89 5.11071e-07 // $x=2.475 $y=2.58 $x2=2.705 $y2=2.575
24 X1/NET9:23 NET5:89 2.50432e-06 // $x=3.07 $y=2.58 $x2=2.705 $y2=2.575
25 X1/NET9:42 NET5:89 1.98322e-05 // $x=2.345 $y=2.58 $x2=2.705 $y2=2.575
26 X1/NET9:57 NET5:89 9.0049e-06 // $x=2.345 $y=2.495 $x2=2.705 $y2=2.575
27 X1/NET9:68 NET5:89 3.01039e-06 // $x=2.345 $y=2.66 $x2=2.705 $y2=2.575
28 X1/NET9:2 NET5:121 1.01014e-06 // $x=2.345 $y=2.58 $x2=2.705 $y2=2.02
29 X1/NET9:57 NET5:121 2.88157e-06 // $x=2.345 $y=2.495 $x2=2.705 $y2=2.02
30 X1/NET9:11 NET5:126 8.64715e-07 // $x=2.805 $y=2.58 $x2=2.825 $y2=2.66
31 X1/NET9:23 NET5:126 3.40746e-07 // $x=3.07 $y=2.58 $x2=2.825 $y2=2.66
32 X1/NET9:68 NET5:126 3.12766e-06 // $x=2.345 $y=2.66 $x2=2.825 $y2=2.66
33 x1/x1/MP7:g x1/x1/MP9:g 3.83211e-06 // $x=2.345 $y=3.485 $x2=1.385 $y2=3.485
34 x1/x1/MP7:g x1/x1/MP6:g 5.74871e-05 // $x=2.345 $y=3.485 $x2=2.825 $y2=3.485
35 X1/NET9:57 NET5:136 2.84999e-06 // $x=2.345 $y=2.495 $x2=1.385 $y2=2.495
36 X1/NET9:23 NET5:141 4.07215e-07 // $x=3.07 $y=2.58 $x2=2.825 $y2=2.495
37 X1/NET9:57 NET5:141 3.91677e-05 // $x=2.345 $y=2.495 $x2=2.825 $y2=2.495
38 X1/NET9:68 NET5:147 1.5525e-06 // $x=2.345 $y=2.66 $x2=1.385 $y2=2.66
39 X1/NET9:42 NET5:149 1.79728e-06 // $x=2.345 $y=2.58 $x2=2.825 $y2=2.66
40 X1/NET9:68 NET5:149 4.20412e-05 // $x=2.345 $y=2.66 $x2=2.825 $y2=2.66
41 X1/NET9:42 X1/NET7:2 1.45601e-06 // $x=2.345 $y=2.58 $x2=1.385 $y2=2.745
42 x1/x1/MP7:g X1/NET7:2 1.18445e-06 // $x=2.345 $y=3.485 $x2=1.385 $y2=2.745
43 X1/NET9:68 X1/NET7:2 7.73868e-07 // $x=2.345 $y=2.66 $x2=1.385 $y2=2.745
44 X1/NET9:26 X1/NET7:7 1.4569e-06 // $x=3.07 $y=2.58 $x2=2.44 $y2=2.02
45 X1/NET9:2 X1/NET7:13 5.63263e-06 // $x=2.345 $y=2.58 $x2=0 $y2=0
46 X1/NET9:12 X1/NET7:13 3.49431e-05 // $x=2.475 $y=2.58 $x2=0 $y2=0
47 X1/NET9:23 X1/NET7:13 2.63631e-06 // $x=3.07 $y=2.58 $x2=0 $y2=0
48 X1/NET9:26 X1/NET7:13 6.75887e-06 // $x=3.07 $y=2.58 $x2=0 $y2=0
49 X1/NET9:2 X1/NET7:14 4.93441e-07 // $x=2.345 $y=2.58 $x2=1.865 $y2=2.05
50 X1/NET9:11 X1/NET7:14 1.59845e-05 // $x=2.805 $y=2.58 $x2=1.865 $y2=2.05
51 X1/NET9:12 X1/NET7:14 1.57574e-05 // $x=2.475 $y=2.58 $x2=1.865 $y2=2.05
52 X1/NET9:23 X1/NET7:14 3.21826e-05 // $x=3.07 $y=2.58 $x2=1.865 $y2=2.05
53 X1/NET9:26 X1/NET7:14 1.64565e-05 // $x=3.07 $y=2.58 $x2=1.865 $y2=2.05
54 X1/NET9:34 X1/NET7:14 3.40423e-06 // $x=3.065 $y=2.65 $x2=1.865 $y2=2.05
55 X1/NET9:39 X1/NET7:14 4.04653e-06 // $x=5.06 $y=2.662 $x2=1.865 $y2=2.05
56 X1/NET9:42 X1/NET7:14 3.61897e-06 // $x=2.345 $y=2.58 $x2=1.865 $y2=2.05
57 x1/x1/MP7:g X1/NET7:14 3.06521e-06 // $x=2.345 $y=3.485 $x2=1.865 $y2=2.05
58 X1/NET9:68 X1/NET7:14 2.31794e-07 // $x=2.345 $y=2.66 $x2=1.865 $y2=2.05
59 X1/NET9:2 X1/NET7:15 1.28134e-06 // $x=2.345 $y=2.58 $x2=1.985 $y2=2.05
60 X1/NET9:12 X1/NET7:15 4.13565e-06 // $x=2.475 $y=2.58 $x2=1.985 $y2=2.05
61 X1/NET9:26 X1/NET7:15 2.06602e-06 // $x=3.07 $y=2.58 $x2=1.985 $y2=2.05
62 x1/x1/MP7:g X1/NET7:15 1.43858e-06 // $x=2.345 $y=3.485 $x2=1.985 $y2=2.05
63 X1/NET9:68 X1/NET7:15 4.70539e-07 // $x=2.345 $y=2.66 $x2=1.985 $y2=2.05
64 X1/NET9:12 X1/NET7:19 6.18902e-06 // $x=2.475 $y=2.58 $x2=0 $y2=0
65 X1/NET9:26 X1/NET7:19 3.661e-05 // $x=3.07 $y=2.58 $x2=0 $y2=0
66 X1/NET9:34 X1/NET7:19 1.54792e-05 // $x=3.065 $y=2.65 $x2=0 $y2=0
67 X1/NET9:26 X1/NET7:21 4.10651e-06 // $x=3.07 $y=2.58 $x2=11.645 $y2=6.4
68 X1/NET9:39 X1/NET7:21 5.67986e-06 // $x=5.06 $y=2.662 $x2=11.645 $y2=6.4
69 X1/NET9:2 X1/NET7:28 3.93669e-06 // $x=2.345 $y=2.58 $x2=75.845 $y2=2.48
70 X1/NET9:42 X1/NET7:28 1.61226e-05 // $x=2.345 $y=2.58 $x2=75.845 $y2=2.48
71 x1/x1/MP7:g X1/NET7:28 1.79377e-06 // $x=2.345 $y=3.485 $x2=75.845 $y2=2.48
72 X1/NET9:68 X1/NET7:28 1.79728e-06 // $x=2.345 $y=2.66 $x2=75.845 $y2=2.48
73 x1/x1/MP7:g x1/x1/MP8:g 5.80427e-05 // $x=2.345 $y=3.485 $x2=9.977 $y2=0.925
74 X1/NET9:2 X1/NET7:43 4.21184e-07 // $x=2.345 $y=2.58 $x2=9.98 $y2=1.53
75 X1/NET9:57 X1/NET7:43 3.99175e-05 // $x=2.345 $y=2.495 $x2=9.98 $y2=1.53
76 X1/NET9:2 X1/NET7:54 2.93721e-06 // $x=2.345 $y=2.58 $x2=12.447 $y2=5.695
77 X1/NET9:42 X1/NET7:54 1.79728e-06 // $x=2.345 $y=2.58 $x2=12.447 $y2=5.695
78 X1/NET9:68 X1/NET7:54 4.45571e-05 // $x=2.345 $y=2.66 $x2=12.447 $y2=5.695
79 x1/x1/MP2:g X1/NET1:10 9.04212e-07 // $x=5.225 $y=3.485 $x2=75.845 $y2=2.365
80 X1/NET9:39 X1/NET1:24 3.86831e-06 // $x=5.06 $y=2.662 $x2=12.45 $y2=2.14
81 X1/NET9:7 X1/NET1:25 3.14576e-07 // $x=5.225 $y=2.58 $x2=12.45 $y2=2.11
82 X1/NET9:14 X1/NET1:25 1.66962e-05 // $x=5.225 $y=2.58 $x2=12.45 $y2=2.11
83 X1/NET9:30 X1/NET1:25 1.01186e-05 // $x=5.225 $y=2.675 $x2=12.45 $y2=2.11
84 X1/NET9:38 X1/NET1:25 3.32306e-07 // $x=5.225 $y=2.675 $x2=12.45 $y2=2.11
85 X1/NET9:39 X1/NET1:25 1.07339e-05 // $x=5.06 $y=2.662 $x2=12.45 $y2=2.11
86 x1/x1/MP2:g X1/NET1:25 1.91322e-06 // $x=5.225 $y=3.485 $x2=12.45 $y2=2.11
87 X1/NET9:30 X1/NET1:58 3.11288e-05 // $x=5.225 $y=2.675 $x2=0 $y2=0
88 X1/NET9:39 X1/NET1:58 3.90664e-05 // $x=5.06 $y=2.662 $x2=0 $y2=0
89 x1/x1/MP2:g X1/NET1:66 3.34943e-06 // $x=5.225 $y=3.485 $x2=11.69 $y2=6.28
90 x1/x1/MP2:g X1/NET1:87 1.18177e-06 // $x=5.225 $y=3.485 $x2=0 $y2=0
91 X1/NET9:39 X1/NET11:1 7.0242e-07 // $x=5.06 $y=2.662 $x2=1.385 $y2=2.51
92 X1/NET9:23 X1/NET11:2 1.06393e-05 // $x=3.07 $y=2.58 $x2=1.385 $y2=2.745
93 X1/NET9:26 X1/NET11:2 1.61719e-06 // $x=3.07 $y=2.58 $x2=1.385 $y2=2.745
94 X1/NET9:39 X1/NET11:2 1.46194e-06 // $x=5.06 $y=2.662 $x2=1.385 $y2=2.745
95 X1/NET9:14 X1/NET11:4 6.14081e-06 // $x=5.225 $y=2.58 $x2=1.455 $y2=2.44
96 X1/NET9:30 X1/NET11:4 3.92566e-06 // $x=5.225 $y=2.675 $x2=1.455 $y2=2.44
97 X1/NET9:48 X1/NET11:4 2.32732e-06 // $x=5.225 $y=2.58 $x2=1.455 $y2=2.44
98 x1/x1/MP2:g X1/NET11:4 1.71757e-06 // $x=5.225 $y=3.485 $x2=1.455 $y2=2.44
99 X1/NET9:70 X1/NET11:4 1.63352e-06 // $x=5.225 $y=2.66 $x2=1.455 $y2=2.44
100 X1/NET9:7 X1/NET11:12 7.4538e-07 // $x=5.225 $y=2.58 $x2=1.385 $y2=2.86
101 X1/NET9:23 X1/NET11:12 3.32295e-07 // $x=3.07 $y=2.58 $x2=1.385 $y2=2.86
102 X1/NET9:26 X1/NET11:12 2.55328e-07 // $x=3.07 $y=2.58 $x2=1.385 $y2=2.86
103 X1/NET9:14 X1/NET11:15 2.1176e-07 // $x=5.225 $y=2.58 $x2=1.985 $y2=2.05
104 X1/NET9:23 X1/NET11:15 2.23392e-05 // $x=3.07 $y=2.58 $x2=1.985 $y2=2.05
105 X1/NET9:26 X1/NET11:15 4.28246e-06 // $x=3.07 $y=2.58 $x2=1.985 $y2=2.05
106 X1/NET9:30 X1/NET11:15 8.4676e-07 // $x=5.225 $y=2.675 $x2=1.985 $y2=2.05
107 X1/NET9:7 X1/NET11:19 5.4249e-06 // $x=5.225 $y=2.58 $x2=0 $y2=0
108 X1/NET9:14 X1/NET11:19 5.47135e-05 // $x=5.225 $y=2.58 $x2=0 $y2=0
109 X1/NET9:30 X1/NET11:19 1.07859e-05 // $x=5.225 $y=2.675 $x2=0 $y2=0
110 X1/NET9:38 X1/NET11:19 4.21534e-06 // $x=5.225 $y=2.675 $x2=0 $y2=0
111 x1/x1/MP2:g X1/NET11:22 1.45795e-06 // $x=5.225 $y=3.485 $x2=11.69 $y2=6.442
112 X1/NET9:14 X1/NET11:27 3.94377e-07 // $x=5.225 $y=2.58 $x2=12.48 $y2=2.14
113 X1/NET9:26 X1/NET11:27 4.76658e-05 // $x=3.07 $y=2.58 $x2=12.48 $y2=2.14
114 X1/NET9:30 X1/NET11:27 7.91055e-06 // $x=5.225 $y=2.675 $x2=12.48 $y2=2.14
115 X1/NET9:34 X1/NET11:27 2.21305e-05 // $x=3.065 $y=2.65 $x2=12.48 $y2=2.14
116 X1/NET9:39 X1/NET11:27 1.70928e-05 // $x=5.06 $y=2.662 $x2=12.48 $y2=2.14
117 X1/NET9:14 X1/NET11:31 6.00576e-07 // $x=5.225 $y=2.58 $x2=75.89 $y2=1
118 X1/NET9:23 X1/NET11:31 3.61156e-06 // $x=3.07 $y=2.58 $x2=75.89 $y2=1
119 X1/NET9:26 X1/NET11:31 4.29512e-05 // $x=3.07 $y=2.58 $x2=75.89 $y2=1
120 X1/NET9:30 X1/NET11:31 1.94004e-05 // $x=5.225 $y=2.675 $x2=75.89 $y2=1
121 X1/NET9:38 X1/NET11:31 7.24506e-07 // $x=5.225 $y=2.675 $x2=75.89 $y2=1
122 X1/NET9:39 X1/NET11:31 3.06541e-05 // $x=5.06 $y=2.662 $x2=75.89 $y2=1
123 X1/NET9:14 X1/NET11:35 3.84241e-06 // $x=5.225 $y=2.58 $x2=1.96 $y2=0.925
124 X1/NET9:30 X1/NET11:35 5.11336e-05 // $x=5.225 $y=2.675 $x2=1.96 $y2=0.925
125 X1/NET9:38 X1/NET11:35 1.01256e-05 // $x=5.225 $y=2.675 $x2=1.96 $y2=0.925
126 X1/NET9:39 X1/NET11:35 4.923e-05 // $x=5.06 $y=2.662 $x2=1.96 $y2=0.925
127 X1/NET9:23 X1/NET11:38 6.15776e-07 // $x=3.07 $y=2.58 $x2=2.045 $y2=0.84
128 X1/NET9:42 X1/NET11:38 9.50224e-07 // $x=2.345 $y=2.58 $x2=2.045 $y2=0.84
129 X1/NET9:7 X1/NET11:44 5.33028e-06 // $x=5.225 $y=2.58 $x2=9.98 $y2=2.025
130 X1/NET9:48 X1/NET11:44 1.66751e-05 // $x=5.225 $y=2.58 $x2=9.98 $y2=2.025
131 x1/x1/MP2:g X1/NET11:44 1.77514e-06 // $x=5.225 $y=3.485 $x2=9.98 $y2=2.025
132 X1/NET9:70 X1/NET11:44 1.79728e-06 // $x=5.225 $y=2.66 $x2=9.98 $y2=2.025
133 x1/x1/MP7:g x1/x1/MP5:g 3.60982e-06 // $x=2.345 $y=3.485 $x2=12.36 $y2=5.782
134 x1/x1/MP2:g x1/x1/MP3:g 5.8489e-05 // $x=5.225 $y=3.485 $x2=11.735 $y2=5.782
135 X1/NET9:23 X1/NET11:53 3.26858e-07 // $x=3.07 $y=2.58 $x2=12.447 $y2=2.315
136 X1/NET9:57 X1/NET11:53 2.59677e-06 // $x=2.345 $y=2.495 $x2=12.447 $y2=2.315
137 X1/NET9:7 X1/NET11:58 5.47622e-07 // $x=5.225 $y=2.58 $x2=0 $y2=0
138 X1/NET9:62 X1/NET11:58 4.10853e-05 // $x=5.225 $y=2.495 $x2=0 $y2=0
139 X1/NET9:23 X1/NET11:64 4.02936e-07 // $x=3.07 $y=2.58 $x2=11.69 $y2=6.445
140 X1/NET9:68 X1/NET11:64 8.94081e-07 // $x=2.345 $y=2.66 $x2=11.69 $y2=6.445
141 X1/NET9:7 X1/NET11:66 4.19243e-06 // $x=5.225 $y=2.58 $x2=11.69 $y2=6.28
142 X1/NET9:48 X1/NET11:66 1.79728e-06 // $x=5.225 $y=2.58 $x2=11.69 $y2=6.28
143 X1/NET9:70 X1/NET11:66 4.57674e-05 // $x=5.225 $y=2.66 $x2=11.69 $y2=6.28
144 X1/NET9:7 X1/NET6:2 6.24553e-06 // $x=5.225 $y=2.58 $x2=1.385 $y2=2.745
145 X1/NET9:14 X1/NET6:2 1.55328e-06 // $x=5.225 $y=2.58 $x2=1.385 $y2=2.745
146 X1/NET9:62 X1/NET6:2 2.27513e-06 // $x=5.225 $y=2.495 $x2=1.385 $y2=2.745
147 X1/NET9:7 X1/NET6:3 8.27737e-06 // $x=5.225 $y=2.58 $x2=1.795 $y2=2.44
148 X1/NET9:14 X1/NET6:3 3.98441e-06 // $x=5.225 $y=2.58 $x2=1.795 $y2=2.44
149 X1/NET9:48 X1/NET6:3 7.96219e-07 // $x=5.225 $y=2.58 $x2=1.795 $y2=2.44
150 X1/NET9:62 X1/NET6:3 4.62748e-06 // $x=5.225 $y=2.495 $x2=1.795 $y2=2.44
151 X1/NET9:7 X1/NET6:4 6.76166e-06 // $x=5.225 $y=2.58 $x2=1.455 $y2=2.44
152 X1/NET9:14 X1/NET6:4 3.58534e-07 // $x=5.225 $y=2.58 $x2=1.455 $y2=2.44
153 X1/NET9:30 X1/NET6:4 3.18513e-06 // $x=5.225 $y=2.675 $x2=1.455 $y2=2.44
154 X1/NET9:48 X1/NET6:4 1.01014e-06 // $x=5.225 $y=2.58 $x2=1.455 $y2=2.44
155 X1/NET9:62 X1/NET6:4 1.39865e-06 // $x=5.225 $y=2.495 $x2=1.455 $y2=2.44
156 X1/NET9:7 X1/NET6:8 2.09694e-05 // $x=5.225 $y=2.58 $x2=2.145 $y2=2.02
157 X1/NET9:30 X1/NET6:8 2.78864e-06 // $x=5.225 $y=2.675 $x2=2.145 $y2=2.02
158 X1/NET9:48 X1/NET6:8 1.48557e-06 // $x=5.225 $y=2.58 $x2=2.145 $y2=2.02
159 X1/NET9:7 X1/NET6:11 5.59659e-07 // $x=5.225 $y=2.58 $x2=1.385 $y2=2.86
160 X1/NET9:14 X1/NET6:11 9.58077e-06 // $x=5.225 $y=2.58 $x2=1.385 $y2=2.86
161 X1/NET9:30 X1/NET6:11 7.34999e-06 // $x=5.225 $y=2.675 $x2=1.385 $y2=2.86
162 X1/NET9:38 X1/NET6:11 4.98356e-07 // $x=5.225 $y=2.675 $x2=1.385 $y2=2.86
163 X1/NET9:39 X1/NET6:11 2.9894e-06 // $x=5.06 $y=2.662 $x2=1.385 $y2=2.86
164 X1/NET9:62 X1/NET6:11 4.36207e-07 // $x=5.225 $y=2.495 $x2=1.385 $y2=2.86
165 X1/NET9:7 X1/NET6:13 5.74597e-06 // $x=5.225 $y=2.58 $x2=0 $y2=0
166 X1/NET9:14 X1/NET6:13 7.81167e-07 // $x=5.225 $y=2.58 $x2=0 $y2=0
167 X1/NET9:62 X1/NET6:13 6.5078e-07 // $x=5.225 $y=2.495 $x2=0 $y2=0
168 X1/NET9:7 X1/NET6:39 2.08451e-06 // $x=5.225 $y=2.58 $x2=9.975 $y2=0.4
169 X1/NET9:14 X1/NET6:39 6.54985e-07 // $x=5.225 $y=2.58 $x2=9.975 $y2=0.4
170 X1/NET9:48 X1/NET6:39 1.79106e-05 // $x=5.225 $y=2.58 $x2=9.975 $y2=0.4
171 X1/NET9:70 X1/NET6:39 1.79728e-06 // $x=5.225 $y=2.66 $x2=9.975 $y2=0.4
172 X1/NET9:7 X1/NET6:54 1.01014e-06 // $x=5.225 $y=2.58 $x2=12.447 $y2=5.695
173 X1/NET9:62 X1/NET6:54 3.98662e-06 // $x=5.225 $y=2.495 $x2=12.447 $y2=5.695
174 X1/NET9:62 X1/NET6:60 3.91332e-05 // $x=5.225 $y=2.495 $x2=1.985 $y2=2.02
175 X1/NET9:7 X1/NET6:63 1.45885e-06 // $x=5.225 $y=2.58 $x2=9.977 $y2=1.53
176 X1/NET9:14 X1/NET6:63 5.18197e-07 // $x=5.225 $y=2.58 $x2=9.977 $y2=1.53
177 X1/NET9:48 X1/NET6:63 1.79728e-06 // $x=5.225 $y=2.58 $x2=9.977 $y2=1.53
178 X1/NET9:70 X1/NET6:63 4.42249e-05 // $x=5.225 $y=2.66 $x2=9.977 $y2=1.53
179 X1/NET9:12 X1/X1/NET13:26 8.99255e-07 // $x=2.475 $y=2.58 $x2=12.48 $y2=2.14
180 X1/NET9:11 X1/X1/NET13:31 1.08595e-06 // $x=2.805 $y=2.58 $x2=75.89 $y2=1
181 X1/NET9:26 X1/X1/NET13:31 1.08586e-05 // $x=3.07 $y=2.58 $x2=75.89 $y2=1
182 x1/x1/MP7:g X1/X1/NET13:31 3.44026e-06 // $x=2.345 $y=3.485 $x2=75.89 $y2=1
183 X1/NET9:14 X1/X1/NET13:35 3.06073e-06 // $x=5.225 $y=2.58 $x2=1.96 $y2=0.925
184 X1/NET9:39 X1/X1/NET13:46 4.54139e-06 // $x=5.06 $y=2.662 $x2=10.06 $y2=0.315
185 x1/x1/MP2:g x1/x1/MP1:g 3.52114e-06 // $x=5.225 $y=3.485 $x2=1.385 $y2=2.66
186 X1/NET9:12 X1/X1/NET9:2 8.90357e-07 // $x=2.475 $y=2.58 $x2=1.385 $y2=2.745
187 X1/NET9:23 X1/X1/NET9:2 6.51423e-06 // $x=3.07 $y=2.58 $x2=1.385 $y2=2.745
188 X1/NET9:26 X1/X1/NET9:2 8.11963e-06 // $x=3.07 $y=2.58 $x2=1.385 $y2=2.745
189 X1/NET9:42 X1/X1/NET9:2 1.70677e-06 // $x=2.345 $y=2.58 $x2=1.385 $y2=2.745
190 X1/NET9:2 X1/X1/NET9:4 7.30745e-06 // $x=2.345 $y=2.58 $x2=1.455 $y2=2.44
191 X1/NET9:23 X1/X1/NET9:4 1.45194e-05 // $x=3.07 $y=2.58 $x2=1.455 $y2=2.44
192 X1/NET9:42 X1/X1/NET9:4 6.92463e-07 // $x=2.345 $y=2.58 $x2=1.455 $y2=2.44
193 X1/NET9:26 X1/X1/NET9:5 4.0674e-07 // $x=3.07 $y=2.58 $x2=1.865 $y2=2.21
194 X1/NET9:23 X1/X1/NET9:6 6.69447e-06 // $x=3.07 $y=2.58 $x2=1.865 $y2=2.37
195 X1/NET9:2 X1/X1/NET9:13 6.4824e-06 // $x=2.345 $y=2.58 $x2=0 $y2=0
196 X1/NET9:11 X1/X1/NET9:13 5.71319e-06 // $x=2.805 $y=2.58 $x2=0 $y2=0
197 X1/NET9:12 X1/X1/NET9:13 8.44942e-07 // $x=2.475 $y=2.58 $x2=0 $y2=0
198 X1/NET9:26 X1/X1/NET9:13 4.96226e-07 // $x=3.07 $y=2.58 $x2=0 $y2=0
199 x1/x1/MP7:g X1/X1/NET9:13 3.84699e-06 // $x=2.345 $y=3.485 $x2=0 $y2=0
200 X1/NET9:68 X1/X1/NET9:13 6.84453e-07 // $x=2.345 $y=2.66 $x2=0 $y2=0
201 X1/NET9:2 X1/X1/NET9:17 1.37482e-05 // $x=2.345 $y=2.58 $x2=2.585 $y2=2.02
202 X1/NET9:11 X1/X1/NET9:17 4.51703e-06 // $x=2.805 $y=2.58 $x2=2.585 $y2=2.02
203 X1/NET9:23 X1/X1/NET9:17 1.01522e-05 // $x=3.07 $y=2.58 $x2=2.585 $y2=2.02
204 X1/NET9:42 X1/X1/NET9:17 1.09791e-06 // $x=2.345 $y=2.58 $x2=2.585 $y2=2.02
205 X1/NET9:14 X1/X1/NET9:27 9.00328e-06 // $x=5.225 $y=2.58 $x2=12.48 $y2=2.14
206 X1/NET9:30 X1/X1/NET9:27 5.22769e-07 // $x=5.225 $y=2.675 $x2=12.48 $y2=2.14
207 X1/NET9:39 X1/X1/NET9:34 3.17455e-06 // $x=5.06 $y=2.662 $x2=75.905 $y2=1.265
208 X1/NET9:2 X1/X1/NET9:40 1.01014e-06 // $x=2.345 $y=2.58 $x2=9.975 $y2=0.755
209 x1/x1/MP7:g X1/X1/NET9:40 5.97212e-06 // $x=2.345 $y=3.485 $x2=9.975 $y2=0.755
210 X1/NET9:7 GND:29 6.05766e-07 // $x=5.225 $y=2.58 $x2=75.845 $y2=2.48
211 X1/NET9:11 GND:29 2.23942e-06 // $x=2.805 $y=2.58 $x2=75.845 $y2=2.48
212 X1/NET9:23 GND:29 3.54544e-06 // $x=3.07 $y=2.58 $x2=75.845 $y2=2.48
213 X1/NET9:62 GND:29 3.74777e-06 // $x=5.225 $y=2.495 $x2=75.845 $y2=2.48
214 X1/NET9:2 GND:30 1.11358e-06 // $x=2.345 $y=2.58 $x2=0 $y2=0
215 X1/NET9:57 GND:30 3.69636e-06 // $x=2.345 $y=2.495 $x2=0 $y2=0
216 X1/NET9:42 GND:157 1.34487e-06 // $x=2.345 $y=2.58 $x2=12.31 $y2=2.605
217 X1/NET9:57 GND:157 5.49143e-06 // $x=2.345 $y=2.495 $x2=12.31 $y2=2.605
218 X1/NET9:68 GND:157 5.87352e-07 // $x=2.345 $y=2.66 $x2=12.31 $y2=2.605
219 X1/NET9:42 GND:158 4.18169e-07 // $x=2.345 $y=2.58 $x2=75.705 $y2=2.605
220 X1/NET9:57 GND:158 1.12027e-06 // $x=2.345 $y=2.495 $x2=75.705 $y2=2.605
221 X1/NET9:68 GND:158 5.96793e-07 // $x=2.345 $y=2.66 $x2=75.705 $y2=2.605
222 X1/NET9:48 GND:184 1.61223e-06 // $x=5.225 $y=2.58 $x2=0 $y2=0
223 X1/NET9:62 GND:184 6.61034e-06 // $x=5.225 $y=2.495 $x2=0 $y2=0
224 X1/NET9:70 GND:184 1.1747e-06 // $x=5.225 $y=2.66 $x2=0 $y2=0
225 X1/NET9:57 x1/x1/MN9:s 8.40953e-06 // $x=2.345 $y=2.495 $x2=0 $y2=0
226 X1/NET9:62 x1/x1/MN1:s 8.36531e-06 // $x=5.225 $y=2.495 $x2=0 $y2=0
227 X1/NET9:2 X1/X1/NET14:1 2.89939e-06 // $x=2.345 $y=2.58 $x2=1.385 $y2=2.51
228 X1/NET9:26 X1/X1/NET14:1 7.08073e-06 // $x=3.07 $y=2.58 $x2=1.385 $y2=2.51
229 X1/NET9:42 X1/X1/NET14:1 6.13068e-06 // $x=2.345 $y=2.58 $x2=1.385 $y2=2.51
230 x1/x1/MP7:g X1/X1/NET14:1 5.72607e-06 // $x=2.345 $y=3.485 $x2=1.385 $y2=2.51
231 X1/NET9:68 X1/X1/NET14:1 2.59792e-07 // $x=2.345 $y=2.66 $x2=1.385 $y2=2.51
232 X1/NET9:2 X1/X1/NET14:4 3.77183e-06 // $x=2.345 $y=2.58 $x2=1.455 $y2=2.44
233 X1/NET9:26 X1/X1/NET14:4 7.97954e-07 // $x=3.07 $y=2.58 $x2=1.455 $y2=2.44
234 x1/x1/MP7:g X1/X1/NET14:4 2.85616e-06 // $x=2.345 $y=3.485 $x2=1.455 $y2=2.44
235 X1/NET9:68 X1/X1/NET14:4 6.02286e-07 // $x=2.345 $y=2.66 $x2=1.455 $y2=2.44
236 X1/NET9:26 X1/X1/NET14:6 2.15326e-06 // $x=3.07 $y=2.58 $x2=1.865 $y2=2.37
237 X1/NET9:2 x1/x1/MP8:s 4.96574e-07 // $x=2.345 $y=2.58 $x2=11.645 $y2=6.4
238 x1/x1/MP7:g x1/x1/MP8:s 4.52231e-06 // $x=2.345 $y=3.485 $x2=11.645 $y2=6.4
239 X1/NET9:7 X1/X1/NET2:3 1.35801e-06 // $x=5.225 $y=2.58 $x2=1.795 $y2=2.44
240 X1/NET9:7 X1/X1/NET2:5 9.03712e-06 // $x=5.225 $y=2.58 $x2=1.865 $y2=2.21
241 X1/NET9:48 X1/X1/NET2:5 2.66226e-07 // $x=5.225 $y=2.58 $x2=1.865 $y2=2.21
242 X1/NET9:48 X1/X1/NET2:6 2.58912e-07 // $x=5.225 $y=2.58 $x2=1.865 $y2=2.37
243 X1/NET9:39 X1/X1/NET2:10 1.62479e-06 // $x=5.06 $y=2.662 $x2=75.845 $y2=2.365
244 x1/x1/MP2:g X1/X1/NET2:10 1.14161e-06 // $x=5.225 $y=3.485 $x2=75.845 $y2=2.365
245 X1/NET9:7 X1/X1/NET2:14 1.55252e-06 // $x=5.225 $y=2.58 $x2=1.865 $y2=2.05
246 X1/NET9:30 X1/X1/NET2:14 5.87195e-06 // $x=5.225 $y=2.675 $x2=1.865 $y2=2.05
247 X1/NET9:7 X1/X1/NET2:15 2.11276e-05 // $x=5.225 $y=2.58 $x2=1.985 $y2=2.05
248 X1/NET9:14 X1/X1/NET2:15 6.66362e-06 // $x=5.225 $y=2.58 $x2=1.985 $y2=2.05
249 X1/NET9:30 X1/X1/NET2:15 3.20169e-06 // $x=5.225 $y=2.675 $x2=1.985 $y2=2.05
250 X1/NET9:48 X1/X1/NET2:15 2.61406e-06 // $x=5.225 $y=2.58 $x2=1.985 $y2=2.05
251 x1/x1/MP2:g X1/X1/NET2:15 1.29362e-06 // $x=5.225 $y=3.485 $x2=1.985 $y2=2.05
252 X1/NET9:70 X1/X1/NET2:15 1.35175e-06 // $x=5.225 $y=2.66 $x2=1.985 $y2=2.05
253 x1/x1/MP2:g X1/X1/NET2:23 9.62628e-07 // $x=5.225 $y=3.485 $x2=11.69 $y2=6.445
254 X1/NET9:7 X1/X1/NET2:39 1.01014e-06 // $x=5.225 $y=2.58 $x2=9.975 $y2=0.4
255 X1/NET9:48 X1/X1/NET2:39 1.79577e-05 // $x=5.225 $y=2.58 $x2=9.975 $y2=0.4
256 x1/x1/MP2:g X1/X1/NET2:39 1.91976e-05 // $x=5.225 $y=3.485 $x2=9.975 $y2=0.4
257 X1/NET9:70 X1/X1/NET2:39 3.22794e-06 // $x=5.225 $y=2.66 $x2=9.975 $y2=0.4
258 x1/x1/MP2:g x1/x1/MP0:g 1.85665e-05 // $x=5.225 $y=3.485 $x2=10.065 $y2=2.11
259 X1/NET9:62 X1/X1/NET2:50 1.45006e-06 // $x=5.225 $y=2.495 $x2=11.645 $y2=6.28
260 X1/NET9:2 VDD:5 3.88211e-07 // $x=2.345 $y=2.58 $x2=1.865 $y2=2.21
261 x1/x1/MP7:g VDD:5 6.91454e-06 // $x=2.345 $y=3.485 $x2=1.865 $y2=2.21
262 x1/x1/MP2:g VDD:5 5.29875e-06 // $x=5.225 $y=3.485 $x2=1.865 $y2=2.21
263 x1/x1/MP7:g VDD:165 7.86271e-06 // $x=2.345 $y=3.485 $x2=0 $y2=0
264 X1/NET9:68 VDD:165 2.22387e-07 // $x=2.345 $y=2.66 $x2=0 $y2=0
265 x1/x1/MP2:g VDD:183 5.84265e-06 // $x=5.225 $y=3.485 $x2=0 $y2=0
266 x1/x1/MP2:g x1/x1/MP2:s 1.0727e-05 // $x=5.225 $y=3.485 $x2=0 $y2=0
267 X1/NET9:70 2.49619e-05 // $x=5.225 $y=2.66
268 X1/NET9:68 2.59658e-05 // $x=2.345 $y=2.66
269 X1/NET9:62 4.75972e-05 // $x=5.225 $y=2.495
270 X1/NET9:57 4.70069e-05 // $x=2.345 $y=2.495
271 x1/x1/MP2:g 7.98142e-05 // $x=5.225 $y=3.485
272 x1/x1/MP7:g 6.59187e-05 // $x=2.345 $y=3.485
273 X1/NET9:48 1.68718e-07 // $x=5.225 $y=2.58
274 X1/NET9:42 2.72178e-06 // $x=2.345 $y=2.58
275 X1/NET9:39 7.90837e-05 // $x=5.06 $y=2.662
276 X1/NET9:38 2.38415e-05 // $x=5.225 $y=2.675
277 X1/NET9:34 3.39536e-05 // $x=3.065 $y=2.65
278 X1/NET9:30 1.60779e-05 // $x=5.225 $y=2.675
279 X1/NET9:26 4.05714e-05 // $x=3.07 $y=2.58
280 X1/NET9:23 5.36114e-06 // $x=3.07 $y=2.58
281 X1/NET9:14 3.47078e-06 // $x=5.225 $y=2.58
282 X1/NET9:12 6.64119e-06 // $x=2.475 $y=2.58
283 X1/NET9:11 3.24355e-06 // $x=2.805 $y=2.58
284 X1/NET9:7 4.91252e-06 // $x=5.225 $y=2.58
285 X1/NET9:2 6.5432e-06 // $x=2.345 $y=2.58

*RES
286 X1/NET9:64 X1/NET9:70 52.7279 // $w=0.214 $lvl=ply $x=5.225 $y=2.825 $x2=5.225 $y2=2.66 $l=0.165
287 X1/NET9:62 X1/NET9:70 52.7279 // $w=0.214 $lvl=ply $x=5.225 $y=2.495 $x2=5.225 $y2=2.66 $l=0.165
288 X1/NET9:59 X1/NET9:68 52.7279 // $w=0.214 $lvl=ply $x=2.345 $y=2.825 $x2=2.345 $y2=2.66 $l=0.165
289 X1/NET9:57 X1/NET9:68 52.7279 // $w=0.214 $lvl=ply $x=2.345 $y=2.495 $x2=2.345 $y2=2.66 $l=0.165
290 x1/x1/MP2:g X1/NET9:64 338.426 // $w=0.094 $lvl=ply $x=5.225 $y=3.485 $x2=5.225 $y2=2.825 $l=0.66
291 x1/x1/MP7:g X1/NET9:59 338.426 // $w=0.094 $lvl=ply $x=2.345 $y=3.485 $x2=2.345 $y2=2.825 $l=0.66
292 x1/x1/MN3:g X1/NET9:62 139.78 // $w=0.15 $lvl=ply $x=5.225 $y=2.06 $x2=5.225 $y2=2.495 $l=0.435
293 x1/x1/MN8:g X1/NET9:57 139.78 // $w=0.15 $lvl=ply $x=2.345 $y=2.06 $x2=2.345 $y2=2.495 $l=0.435
294 X1/NET9:51 X1/NET9:70 152 // $w=0.17 $lvl=licon $x=5.225 $y=2.66 $x2=5.225 $y2=2.66 $l=0.17 $count=1
295 X1/NET9:48 X1/NET9:51 5.47594 // $w=0.187 $lvl=li $x=5.225 $y=2.58 $x2=5.225 $y2=2.66 $l=0.08
296 X1/NET9:45 X1/NET9:68 152 // $w=0.17 $lvl=licon $x=2.345 $y=2.66 $x2=2.345 $y2=2.66 $l=0.17 $count=1
297 X1/NET9:42 X1/NET9:45 5.47594 // $w=0.187 $lvl=li $x=2.345 $y=2.58 $x2=2.345 $y2=2.66 $l=0.08
298 X1/NET9:38 X1/NET9:39 0.0249044 // $w=0.33 $lvl=m4 $x=5.225 $y=2.662 $x2=5.06 $y2=2.662 $l=0.165
299 X1/NET9:34 X1/NET9:36 0.0715217 // $w=0.322 $lvl=m4 $x=3.065 $y=2.65 $x2=3.065 $y2=3.14 $l=0.49
300 X1/NET9:33 X1/NET9:34 0.0044086 // $w=0.322 $lvl=m4 $x=3.23 $y=2.65 $x2=3.065 $y2=2.65 $l=0.165
301 X1/NET9:33 X1/NET9:39 0.312764 // $w=0.275 $lvl=m4 $x=3.23 $y=2.65 $x2=5.06 $y2=2.65 $l=1.83
302 X1/NET9:30 X1/NET9:38 3.41 // $w=0.2 $lvl=via3 $x=5.225 $y=2.675 $x2=5.225 $y2=2.675 $l=0.2 $count=1
303 X1/NET9:28 X1/NET9:36 3.41 // $w=0.2 $lvl=via3 $x=3.065 $y=3.14 $x2=3.065 $y2=3.14 $l=0.2 $count=1
304 X1/NET9:26 X1/NET9:28 0.0807362 // $w=0.326 $lvl=m3 $x=3.07 $y=2.58 $x2=3.07 $y2=3.14 $l=0.56
305 X1/NET9:23 X1/NET9:26 3.41 // $w=0.2 $lvl=via2 $x=3.07 $y=2.58 $x2=3.07 $y2=2.58 $l=0.2 $count=1
306 X1/NET9:17 X1/NET9:30 3.41 // $w=0.2 $lvl=via2 $x=5.225 $y=2.675 $x2=5.225 $y2=2.675 $l=0.2 $count=1
307 X1/NET9:14 X1/NET9:17 0.0492739 // $w=0.241 $lvl=m2 $x=5.225 $y=2.58 $x2=5.225 $y2=2.675 $l=0.095
308 X1/NET9:12 X1/NET9:20 0.112452 // $w=0.281 $lvl=m2 $x=2.475 $y=2.58 $x2=2.345 $y2=2.58 $l=0.13
309 X1/NET9:11 X1/NET9:23 0.166803 // $w=0.331 $lvl=m2 $x=2.805 $y=2.58 $x2=3.07 $y2=2.58 $l=0.265
310 X1/NET9:11 X1/NET9:12 0.408416 // $w=0.101 $lvl=m2 $x=2.805 $y=2.58 $x2=2.475 $y2=2.58 $l=0.33
311 X1/NET9:7 X1/NET9:48 9.3 // $w=0.17 $lvl=mcon $x=5.225 $y=2.58 $x2=5.225 $y2=2.58 $l=0.17 $count=1
312 X1/NET9:7 X1/NET9:14 4.5 // $w=0.15 $lvl=via1 $x=5.225 $y=2.58 $x2=5.225 $y2=2.58 $l=0.15 $count=1
313 X1/NET9:2 X1/NET9:42 9.3 // $w=0.17 $lvl=mcon $x=2.345 $y=2.58 $x2=2.345 $y2=2.58 $l=0.17 $count=1
314 X1/NET9:2 X1/NET9:20 4.5 // $w=0.15 $lvl=via1 $x=2.345 $y=2.58 $x2=2.345 $y2=2.58 $l=0.15 $count=1

*END

*D_NET X2/NET9 0.00254144
*CONN
*I x2/x1/MN8:g I 
*I x2/x1/MN3:g I 
*I x2/x1/MP7:g I 
*I x2/x1/MP2:g I 

*CAP
0 X2/NET9:2 NET1:4 6.48122e-06 // $x=17.605 $y=2.58 $x2=16.645 $y2=2.745
1 X2/NET9:42 NET1:4 2.58912e-07 // $x=17.605 $y=2.58 $x2=16.645 $y2=2.745
2 X2/NET9:2 NET1:5 7.85135e-06 // $x=17.605 $y=2.58 $x2=17.055 $y2=2.44
3 X2/NET9:42 NET1:5 1.11053e-06 // $x=17.605 $y=2.58 $x2=17.055 $y2=2.44
4 X2/NET9:2 NET1:9 1.50869e-05 // $x=17.605 $y=2.58 $x2=17.7 $y2=2.02
5 X2/NET9:12 NET1:9 6.83379e-06 // $x=17.735 $y=2.58 $x2=17.7 $y2=2.02
6 X2/NET9:42 NET1:9 7.96219e-07 // $x=17.605 $y=2.58 $x2=17.7 $y2=2.02
7 X2/NET9:57 NET1:9 4.35e-06 // $x=17.605 $y=2.495 $x2=17.7 $y2=2.02
8 X2/NET9:57 NET1:10 4.47269e-07 // $x=17.605 $y=2.495 $x2=17.405 $y2=2.02
9 X2/NET9:2 NET1:25 7.93425e-06 // $x=17.605 $y=2.58 $x2=17.845 $y2=2.02
10 X2/NET9:11 NET1:25 7.18147e-06 // $x=18.065 $y=2.58 $x2=17.845 $y2=2.02
11 X2/NET9:12 NET1:25 8.38159e-07 // $x=17.735 $y=2.58 $x2=17.845 $y2=2.02
12 X2/NET9:57 NET1:25 6.1211e-07 // $x=17.605 $y=2.495 $x2=17.845 $y2=2.02
13 X2/NET9:11 NET1:43 3.30135e-06 // $x=18.065 $y=2.58 $x2=25.155 $y2=0.84
14 X2/NET9:12 NET1:43 4.1264e-06 // $x=17.735 $y=2.58 $x2=25.155 $y2=0.84
15 X2/NET9:23 NET1:43 5.85642e-06 // $x=18.33 $y=2.58 $x2=25.155 $y2=0.84
16 X2/NET9:26 NET1:43 5.09778e-07 // $x=18.33 $y=2.58 $x2=25.155 $y2=0.84
17 X2/NET9:39 NET1:43 5.26189e-06 // $x=20.32 $y=2.662 $x2=25.155 $y2=0.84
18 X2/NET9:2 NET1:64 3.34869e-07 // $x=17.605 $y=2.58 $x2=17.22 $y2=2.02
19 X2/NET9:12 NET1:64 3.15378e-06 // $x=17.735 $y=2.58 $x2=17.22 $y2=2.02
20 X2/NET9:57 NET1:64 3.75175e-07 // $x=17.605 $y=2.495 $x2=17.22 $y2=2.02
21 X2/NET9:2 NET1:102 3.23587e-06 // $x=17.605 $y=2.58 $x2=17.965 $y2=2.575
22 X2/NET9:11 NET1:102 1.80043e-06 // $x=18.065 $y=2.58 $x2=17.965 $y2=2.575
23 X2/NET9:12 NET1:102 5.11071e-07 // $x=17.735 $y=2.58 $x2=17.965 $y2=2.575
24 X2/NET9:23 NET1:102 2.50432e-06 // $x=18.33 $y=2.58 $x2=17.965 $y2=2.575
25 X2/NET9:42 NET1:102 1.98322e-05 // $x=17.605 $y=2.58 $x2=17.965 $y2=2.575
26 X2/NET9:57 NET1:102 9.0049e-06 // $x=17.605 $y=2.495 $x2=17.965 $y2=2.575
27 X2/NET9:68 NET1:102 3.01039e-06 // $x=17.605 $y=2.66 $x2=17.965 $y2=2.575
28 X2/NET9:2 NET1:122 1.01014e-06 // $x=17.605 $y=2.58 $x2=17.965 $y2=2.02
29 X2/NET9:57 NET1:122 2.88157e-06 // $x=17.605 $y=2.495 $x2=17.965 $y2=2.02
30 X2/NET9:11 NET1:127 8.64715e-07 // $x=18.065 $y=2.58 $x2=18.085 $y2=2.66
31 X2/NET9:23 NET1:127 3.40746e-07 // $x=18.33 $y=2.58 $x2=18.085 $y2=2.66
32 X2/NET9:68 NET1:127 3.12766e-06 // $x=17.605 $y=2.66 $x2=18.085 $y2=2.66
33 x2/x1/MP7:g x2/x1/MP9:g 3.83211e-06 // $x=17.605 $y=3.485 $x2=16.645 $y2=3.485
34 x2/x1/MP7:g x2/x1/MP6:g 5.74871e-05 // $x=17.605 $y=3.485 $x2=18.085 $y2=3.485
35 X2/NET9:57 NET1:137 2.84999e-06 // $x=17.605 $y=2.495 $x2=16.645 $y2=2.495
36 X2/NET9:23 NET1:142 4.07215e-07 // $x=18.33 $y=2.58 $x2=18.085 $y2=2.495
37 X2/NET9:57 NET1:142 3.91677e-05 // $x=17.605 $y=2.495 $x2=18.085 $y2=2.495
38 X2/NET9:68 NET1:148 1.5525e-06 // $x=17.605 $y=2.66 $x2=16.645 $y2=2.66
39 X2/NET9:42 NET1:150 1.79728e-06 // $x=17.605 $y=2.58 $x2=18.085 $y2=2.66
40 X2/NET9:68 NET1:150 4.20412e-05 // $x=17.605 $y=2.66 $x2=18.085 $y2=2.66
41 X2/NET9:42 X2/NET7:2 1.45601e-06 // $x=17.605 $y=2.58 $x2=14.805 $y2=2.365
42 x2/x1/MP7:g X2/NET7:2 1.18445e-06 // $x=17.605 $y=3.485 $x2=14.805 $y2=2.365
43 X2/NET9:68 X2/NET7:2 7.73868e-07 // $x=17.605 $y=2.66 $x2=14.805 $y2=2.365
44 X2/NET9:26 X2/NET7:7 1.4569e-06 // $x=18.33 $y=2.58 $x2=17.125 $y2=2.21
45 X2/NET9:2 X2/NET7:13 5.63263e-06 // $x=17.605 $y=2.58 $x2=0 $y2=0
46 X2/NET9:12 X2/NET7:13 3.49431e-05 // $x=17.735 $y=2.58 $x2=0 $y2=0
47 X2/NET9:23 X2/NET7:13 2.63631e-06 // $x=18.33 $y=2.58 $x2=0 $y2=0
48 X2/NET9:26 X2/NET7:13 6.75887e-06 // $x=18.33 $y=2.58 $x2=0 $y2=0
49 X2/NET9:2 X2/NET7:14 4.93441e-07 // $x=17.605 $y=2.58 $x2=14.85 $y2=1
50 X2/NET9:11 X2/NET7:14 1.59845e-05 // $x=18.065 $y=2.58 $x2=14.85 $y2=1
51 X2/NET9:12 X2/NET7:14 1.57574e-05 // $x=17.735 $y=2.58 $x2=14.85 $y2=1
52 X2/NET9:23 X2/NET7:14 3.21826e-05 // $x=18.33 $y=2.58 $x2=14.85 $y2=1
53 X2/NET9:26 X2/NET7:14 1.64565e-05 // $x=18.33 $y=2.58 $x2=14.85 $y2=1
54 X2/NET9:34 X2/NET7:14 3.40423e-06 // $x=18.325 $y=2.65 $x2=14.85 $y2=1
55 X2/NET9:39 X2/NET7:14 4.04653e-06 // $x=20.32 $y=2.662 $x2=14.85 $y2=1
56 X2/NET9:42 X2/NET7:14 3.61897e-06 // $x=17.605 $y=2.58 $x2=14.85 $y2=1
57 x2/x1/MP7:g X2/NET7:14 3.06521e-06 // $x=17.605 $y=3.485 $x2=14.85 $y2=1
58 X2/NET9:68 X2/NET7:14 2.31794e-07 // $x=17.605 $y=2.66 $x2=14.85 $y2=1
59 X2/NET9:2 X2/NET7:15 1.28134e-06 // $x=17.605 $y=2.58 $x2=14.805 $y2=1
60 X2/NET9:12 X2/NET7:15 4.13565e-06 // $x=17.735 $y=2.58 $x2=14.805 $y2=1
61 X2/NET9:26 X2/NET7:15 2.06602e-06 // $x=18.33 $y=2.58 $x2=14.805 $y2=1
62 x2/x1/MP7:g X2/NET7:15 1.43858e-06 // $x=17.605 $y=3.485 $x2=14.805 $y2=1
63 X2/NET9:68 X2/NET7:15 4.70539e-07 // $x=17.605 $y=2.66 $x2=14.805 $y2=1
64 X2/NET9:12 X2/NET7:19 6.18902e-06 // $x=17.735 $y=2.58 $x2=16.645 $y2=2.86
65 X2/NET9:26 X2/NET7:19 3.661e-05 // $x=18.33 $y=2.58 $x2=16.645 $y2=2.86
66 X2/NET9:34 X2/NET7:19 1.54792e-05 // $x=18.325 $y=2.65 $x2=16.645 $y2=2.86
67 X2/NET9:26 X2/NET7:21 4.10651e-06 // $x=18.33 $y=2.58 $x2=17.125 $y2=2.05
68 X2/NET9:39 X2/NET7:21 5.67986e-06 // $x=20.32 $y=2.662 $x2=17.125 $y2=2.05