*SPEF "2.0"
*DESIGN "SKY130_OSU_RING_OSCILLATOR_MPR2EA_8_B0R1"
*DATE "Thu Nov  2 18:09:09 2023"
*VENDOR "Mentor Graphics Corp."
*PROGRAM "Calibre xRC"
*VERSION "v2023.2_27.15"
*DESIGN_FLOW "extraction"
*DIVIDER /
*DELIMITER :
*BUS_DELIMITER []
*T_UNIT 1 NS
*C_UNIT 1 PF
*R_UNIT 1 OHM
*L_UNIT 1 HENRY



// CIRCUIT TEMPERATURE 30C
// NOMINAL TEMPERATURE 30C

*PORTS 
 X5_Y1 B
 VDD B
 X4_Y1 B
 X3_Y1 B
 X2_Y1 B
 X1_Y1 B
 S5 B
 S4 B
 S3 B
 S2 B
 S1 B
 GND B

*D_NET X1/NET8 0.000624431
*CONN
*I x1/x1/MN13:d B 
*I x1/x1/MN14:d B 
*I x1/x1/MP14:d B 

*CAP
0 X1/NET8:2 X1/NET1:2 8.81165e-06 // $x=0.68 $y=3.01 $x2=2.24 $y2=2.93
1 X1/NET8:6 X1/NET1:2 2.24843e-06 // $x=0.68 $y=3.14 $x2=2.24 $y2=2.93
2 X1/NET8:2 X1/NET1:12 6.05072e-07 // $x=0.68 $y=3.01 $x2=2.12 $y2=2.02
3 X1/NET8:10 X1/NET1:12 1.4184e-05 // $x=1.16 $y=2.02 $x2=2.12 $y2=2.02
4 x1/x1/MN13:d X1/NET1:12 3.24273e-07 // $x=0.995 $y=1.735 $x2=2.12 $y2=2.02
5 X1/NET8:2 X1/NET1:43 4.30486e-06 // $x=0.68 $y=3.01 $x2=2.12 $y2=2.02
6 X1/NET8:6 X1/NET1:43 1.42128e-06 // $x=0.68 $y=3.14 $x2=2.12 $y2=2.02
7 X1/NET8:10 X1/NET1:43 7.625e-06 // $x=1.16 $y=2.02 $x2=2.12 $y2=2.02
8 X1/NET8:10 x1/x1/MN12:d 3.12159e-07 // $x=1.16 $y=2.02 $x2=1.955 $y2=1.735
9 x1/x1/MN13:d x1/x1/MN12:d 1.22803e-06 // $x=0.995 $y=1.735 $x2=1.955 $y2=1.735
10 X1/NET8:2 X1/NET9:2 7.74296e-07 // $x=0.68 $y=3.01 $x2=2.24 $y2=2.93
11 X1/NET8:10 X1/NET9:2 2.59221e-07 // $x=1.16 $y=2.02 $x2=2.24 $y2=2.93
12 X1/NET8:6 X1/NET9:10 1.80789e-05 // $x=0.68 $y=3.14 $x2=10.76 $y2=2.11
13 X1/NET8:6 X1/X1/NET6:40 4.86704e-06 // $x=0.68 $y=3.14 $x2=13.037 $y2=2.315
14 X1/NET8:6 X1/NET7:2 1.41063e-05 // $x=0.68 $y=3.14 $x2=2.24 $y2=2.93
15 X1/NET8:22 X1/NET7:2 3.26551e-07 // $x=0.68 $y=3.14 $x2=2.24 $y2=2.93
16 X1/NET8:6 X1/NET7:25 2.97895e-05 // $x=0.68 $y=3.14 $x2=12.28 $y2=6.4
17 X1/NET8:2 X1/NET7:45 2.57113e-06 // $x=0.68 $y=3.01 $x2=2.12 $y2=2.02
18 X1/NET8:10 X1/NET7:65 2.31402e-06 // $x=1.16 $y=2.02 $x2=2.12 $y2=1.92
19 x1/x1/MN13:d X1/NET7:65 3.33284e-06 // $x=0.995 $y=1.735 $x2=2.12 $y2=1.92
20 X1/NET8:10 X1/NET7:71 8.28967e-07 // $x=1.16 $y=2.02 $x2=12.18 $y2=6.075
21 x1/x1/MN13:d GND:8 2.20618e-06 // $x=0.995 $y=1.735 $x2=10.675 $y2=2.025
22 X1/NET8:4 GND:9 3.85564e-05 // $x=0.75 $y=2.02 $x2=12.895 $y2=2.11
23 X1/NET8:6 GND:9 7.3874e-06 // $x=0.68 $y=3.14 $x2=12.895 $y2=2.11
24 X1/NET8:10 GND:9 3.525e-05 // $x=1.16 $y=2.02 $x2=12.895 $y2=2.11
25 x1/x1/MN13:d GND:9 3.8554e-06 // $x=0.995 $y=1.735 $x2=12.895 $y2=2.11
26 X1/NET8:3 GND:385 9.25178e-07 // $x=1.015 $y=2.02 $x2=0 $y2=0
27 X1/NET8:10 GND:385 1.11991e-06 // $x=1.16 $y=2.02 $x2=0 $y2=0
28 x1/x1/MN13:d GND:385 1.92045e-05 // $x=0.995 $y=1.735 $x2=0 $y2=0
29 X1/NET8:3 x1/x1/MN13:s 2.66703e-06 // $x=1.015 $y=2.02 $x2=0 $y2=0
30 X1/NET8:4 x1/x1/MN13:s 1.65604e-05 // $x=0.75 $y=2.02 $x2=0 $y2=0
31 X1/NET8:10 x1/x1/MN13:s 1.24941e-06 // $x=1.16 $y=2.02 $x2=0 $y2=0
32 X1/NET8:22 x1/x1/MN13:s 2.20567e-06 // $x=0.68 $y=3.14 $x2=0 $y2=0
33 x1/x1/MN13:d x1/x1/MN13:s 1.60625e-05 // $x=0.995 $y=1.735 $x2=0 $y2=0
34 X1/NET8:10 x1/x1/MN14:s 2.40313e-06 // $x=1.16 $y=2.02 $x2=0 $y2=0
35 x1/x1/MN13:d x1/x1/MN14:s 1.50791e-05 // $x=0.995 $y=1.735 $x2=0 $y2=0
36 X1/NET8:10 X1/X1/NET9:2 7.42838e-06 // $x=1.16 $y=2.02 $x2=2.24 $y2=2.93
37 X1/NET8:2 X1/X1/NET9:44 1.08036e-05 // $x=0.68 $y=3.01 $x2=2.12 $y2=1.835
38 X1/NET8:6 X1/X1/NET9:44 8.34426e-06 // $x=0.68 $y=3.14 $x2=2.12 $y2=1.835
39 X1/NET8:22 X1/X1/NET9:44 3.04776e-05 // $x=0.68 $y=3.14 $x2=2.12 $y2=1.835
40 X1/NET8:2 X1/X1/NET9:56 6.89453e-06 // $x=0.68 $y=3.01 $x2=12.237 $y2=6.045
41 X1/NET8:3 X1/X1/NET9:56 6.07488e-06 // $x=1.015 $y=2.02 $x2=12.237 $y2=6.045
42 X1/NET8:6 X1/X1/NET9:56 6.10572e-06 // $x=0.68 $y=3.14 $x2=12.237 $y2=6.045
43 X1/NET8:10 X1/X1/NET9:56 2.16044e-06 // $x=1.16 $y=2.02 $x2=12.237 $y2=6.045
44 X1/NET8:22 X1/X1/NET9:56 6.8864e-07 // $x=0.68 $y=3.14 $x2=12.237 $y2=6.045
45 x1/x1/MN13:d X1/X1/NET9:56 3.62399e-06 // $x=0.995 $y=1.735 $x2=12.237 $y2=6.045
46 x1/x1/MN13:d X1/X1/NET9:61 6.29776e-07 // $x=0.995 $y=1.735 $x2=0 $y2=0
47 X1/NET8:2 x1/x1/MP14:g 2.7463e-06 // $x=0.68 $y=3.01 $x2=13.04 $y2=0.755
48 X1/NET8:6 x1/x1/MP14:g 8.07329e-06 // $x=0.68 $y=3.14 $x2=13.04 $y2=0.755
49 X1/NET8:22 x1/x1/MP14:g 9.97449e-06 // $x=0.68 $y=3.14 $x2=13.04 $y2=0.755
50 X1/NET8:2 X1/X1/NET9:81 7.67085e-06 // $x=0.68 $y=3.01 $x2=0 $y2=0
51 X1/NET8:3 X1/X1/NET9:81 7.11134e-06 // $x=1.015 $y=2.02 $x2=0 $y2=0
52 X1/NET8:10 X1/X1/NET9:81 1.0962e-06 // $x=1.16 $y=2.02 $x2=0 $y2=0
53 x1/x1/MN13:d X1/X1/NET9:81 4.6145e-06 // $x=0.995 $y=1.735 $x2=0 $y2=0
54 X1/NET8:2 X1/X1/NET9:92 2.43689e-06 // $x=0.68 $y=3.01 $x2=12.207 $y2=6.245
55 X1/NET8:3 X1/X1/NET9:92 1.36557e-06 // $x=1.015 $y=2.02 $x2=12.207 $y2=6.245
56 X1/NET8:6 X1/X1/NET9:92 1.57431e-06 // $x=0.68 $y=3.14 $x2=12.207 $y2=6.245
57 X1/NET8:10 X1/X1/NET9:92 8.29626e-07 // $x=1.16 $y=2.02 $x2=12.207 $y2=6.245
58 X1/NET8:2 X1/X1/NET8:8 9.75366e-06 // $x=0.68 $y=3.01 $x2=10.675 $y2=2.025
59 X1/NET8:6 X1/X1/NET8:8 2.18032e-06 // $x=0.68 $y=3.14 $x2=10.675 $y2=2.025
60 X1/NET8:2 X1/X1/NET8:26 6.18919e-06 // $x=0.68 $y=3.01 $x2=13.04 $y2=2.14
61 X1/NET8:6 X1/X1/NET8:26 7.01093e-06 // $x=0.68 $y=3.14 $x2=13.04 $y2=2.14
62 X1/NET8:3 VDD:4 2.05561e-06 // $x=1.015 $y=2.02 $x2=2.31 $y2=3
63 X1/NET8:10 VDD:4 1.70508e-06 // $x=1.16 $y=2.02 $x2=2.31 $y2=3
64 X1/NET8:22 VDD:4 2.97665e-07 // $x=0.68 $y=3.14 $x2=2.31 $y2=3
65 X1/NET8:6 VDD:5 2.25758e-05 // $x=0.68 $y=3.14 $x2=2.6 $y2=3.07
66 X1/NET8:22 VDD:5 2.69825e-06 // $x=0.68 $y=3.14 $x2=2.6 $y2=3.07
67 X1/NET8:6 VDD:144 4.60977e-07 // $x=0.68 $y=3.14 $x2=0 $y2=0
68 X1/NET8:22 VDD:144 6.57731e-06 // $x=0.68 $y=3.14 $x2=0 $y2=0
69 x1/x1/MN13:d 9.00938e-06 // $x=0.995 $y=1.735
70 X1/NET8:22 1.79262e-05 // $x=0.68 $y=3.14
71 X1/NET8:10 1.03099e-05 // $x=1.16 $y=2.02
72 X1/NET8:6 7.03833e-05 // $x=0.68 $y=3.14
73 X1/NET8:4 4.17982e-06 // $x=0.75 $y=2.02
74 X1/NET8:3 1.23884e-06 // $x=1.015 $y=2.02
75 X1/NET8:2 3.61078e-05 // $x=0.68 $y=3.01

*RES
76 X1/NET8:31 x1/x1/MN13:d 6.84492 // $w=0.187 $lvl=li $x=1.16 $y=2.02 $x2=1.16 $y2=1.92 $l=0.1
77 X1/NET8:22 x1/x1/MP14:d 11.6364 // $w=0.187 $lvl=li $x=0.68 $y=3.14 $x2=0.68 $y2=3.31 $l=0.17
78 X1/NET8:10 X1/NET8:31 9.3 // $w=0.17 $lvl=mcon $x=1.16 $y=2.02 $x2=1.16 $y2=2.02 $l=0.17 $count=1
79 X1/NET8:6 X1/NET8:22 9.3 // $w=0.17 $lvl=mcon $x=0.68 $y=3.14 $x2=0.68 $y2=3.14 $l=0.17 $count=1
80 X1/NET8:3 X1/NET8:10 0.123138 // $w=0.191 $lvl=m1 $x=1.015 $y=2.02 $x2=1.16 $y2=2.02 $l=0.145
81 X1/NET8:3 X1/NET8:4 0.32797 // $w=0.101 $lvl=m1 $x=1.015 $y=2.02 $x2=0.75 $y2=2.02 $l=0.265
82 X1/NET8:2 X1/NET8:6 0.112452 // $w=0.281 $lvl=m1 $x=0.68 $y=3.01 $x2=0.68 $y2=3.14 $l=0.13
83 X1/NET8:1 X1/NET8:4 0.0698411 // $w=0.14 $lvl=m1 $x=0.68 $y=2.09 $x2=0.75 $y2=2.02 $l=0.0989949
84 X1/NET8:1 X1/NET8:2 1.13861 // $w=0.101 $lvl=m1 $x=0.68 $y=2.09 $x2=0.68 $y2=3.01 $l=0.92
85 x1/x1/MN14:d x1/x1/MN13:d 0.01 // $x=0.995 $y=1.735 $x2=0.995 $y2=1.735 $l=0

*END

*D_NET X1/NET1 0.00471157
*CONN
*I x1/x1/MN12:d B 
*I x1/x1/MN11:d B 
*I x1/x2/MN0:s B 
*I x1/x3/MN1:s B 
*I x1/x1/MP12:d B 
*I x1/x2/MP1:s B 
*I x1/x3/MP0:s B 

*CAP
0 X1/NET1:2 X1/NET8:2 8.81165e-06 // $x=2.24 $y=2.93 $x2=0.68 $y2=3.01
1 X1/NET1:2 X1/NET8:6 2.24843e-06 // $x=2.24 $y=2.93 $x2=0.68 $y2=3.14
2 X1/NET1:12 X1/NET8:2 6.05072e-07 // $x=2.12 $y=2.02 $x2=0.68 $y2=3.01
3 X1/NET1:12 X1/NET8:10 1.4184e-05 // $x=2.12 $y=2.02 $x2=1.16 $y2=2.02
4 X1/NET1:12 x1/x1/MN13:d 3.24273e-07 // $x=2.12 $y=2.02 $x2=0.995 $y2=1.735
5 X1/NET1:43 X1/NET8:2 4.30486e-06 // $x=2.12 $y=2.02 $x2=0.68 $y2=3.01
6 X1/NET1:43 X1/NET8:6 1.42128e-06 // $x=2.12 $y=2.02 $x2=0.68 $y2=3.14
7 X1/NET1:43 X1/NET8:10 7.625e-06 // $x=2.12 $y=2.02 $x2=1.16 $y2=2.02
8 x1/x1/MN12:d X1/NET8:10 3.12159e-07 // $x=1.955 $y=1.735 $x2=1.16 $y2=2.02
9 x1/x1/MN12:d x1/x1/MN13:d 1.22803e-06 // $x=1.955 $y=1.735 $x2=0.995 $y2=1.735
10 X1/NET1:2 X1/NET9:2 4.36332e-06 // $x=2.24 $y=2.93 $x2=0.68 $y2=3.01
11 x1/x1/MN12:d X1/NET9:2 2.36458e-07 // $x=1.955 $y=1.735 $x2=0.68 $y2=3.01
12 X1/NET1:2 X1/NET9:4 4.0535e-06 // $x=2.24 $y=2.93 $x2=0.75 $y2=2.02
13 X1/NET1:3 X1/NET9:4 7.11905e-06 // $x=2.53 $y=3 $x2=0.75 $y2=2.02
14 X1/NET1:12 X1/NET9:6 4.36332e-06 // $x=2.12 $y=2.02 $x2=0.68 $y2=3.14
15 x1/x1/MN12:d X1/NET9:6 2.41492e-07 // $x=1.955 $y=1.735 $x2=0.68 $y2=3.14
16 X1/NET1:2 X1/NET9:10 7.78691e-06 // $x=2.24 $y=2.93 $x2=1.16 $y2=2.02
17 X1/NET1:3 X1/NET9:10 3.69064e-06 // $x=2.53 $y=3 $x2=1.16 $y2=2.02
18 X1/NET1:43 X1/NET9:10 1.73747e-05 // $x=2.12 $y=2.02 $x2=1.16 $y2=2.02
19 X1/NET1:2 X1/NET9:11 2.87952e-05 // $x=2.24 $y=2.93 $x2=0 $y2=0
20 X1/NET1:3 X1/NET9:11 1.60589e-05 // $x=2.53 $y=3 $x2=0 $y2=0
21 X1/NET1:3 X1/NET9:13 2.03168e-05 // $x=2.53 $y=3 $x2=0 $y2=0
22 X1/NET1:88 X1/NET9:13 9.50141e-07 // $x=2.36 $y=3.42 $x2=0 $y2=0
23 X1/NET1:12 X1/NET9:16 1.05379e-06 // $x=2.12 $y=2.02 $x2=0 $y2=0
24 X1/NET1:3 X1/NET9:27 9.40792e-07 // $x=2.53 $y=3 $x2=1.16 $y2=1.92
25 X1/NET1:6 X1/NET9:27 9.25178e-07 // $x=2.6 $y=3.305 $x2=1.16 $y2=1.92
26 X1/NET1:88 X1/NET9:27 1.74466e-05 // $x=2.36 $y=3.42 $x2=1.16 $y2=1.92
27 X1/NET1:2 X1/NET9:39 1.30628e-05 // $x=2.24 $y=2.93 $x2=0 $y2=0
28 X1/NET1:3 X1/NET9:39 9.16529e-06 // $x=2.53 $y=3 $x2=0 $y2=0
29 X1/NET1:88 X1/NET9:39 1.34471e-05 // $x=2.36 $y=3.42 $x2=0 $y2=0
30 x1/x1/MN12:d X1/NET9:39 3.66077e-07 // $x=1.955 $y=1.735 $x2=0 $y2=0
31 X1/NET1:2 x1/x1/MP12:g 1.04407e-06 // $x=2.24 $y=2.93 $x2=0 $y2=0
32 X1/NET1:3 x1/x1/MP12:g 3.77931e-06 // $x=2.53 $y=3 $x2=0 $y2=0
33 X1/NET1:4 x1/x1/MP12:g 6.92485e-07 // $x=2.31 $y=3 $x2=0 $y2=0
34 X1/NET1:6 x1/x1/MP12:g 7.68168e-07 // $x=2.6 $y=3.305 $x2=0 $y2=0
35 X1/NET1:16 x1/x1/MP12:g 2.9525e-06 // $x=2.36 $y=3.42 $x2=0 $y2=0
36 X1/NET1:88 x1/x1/MP12:g 2.0063e-05 // $x=2.36 $y=3.42 $x2=0 $y2=0
37 X1/NET1:2 X1/NET9:44 3.32102e-06 // $x=2.24 $y=2.93 $x2=0 $y2=0
38 X1/NET1:12 X1/NET9:44 3.51547e-06 // $x=2.12 $y=2.02 $x2=0 $y2=0
39 x1/x1/MN12:d X1/NET9:44 4.43985e-06 // $x=1.955 $y=1.735 $x2=0 $y2=0
40 X1/NET1:2 X1/NET9:50 3.22226e-06 // $x=2.24 $y=2.93 $x2=0 $y2=0
41 X1/NET1:3 X1/NET9:50 1.07233e-06 // $x=2.53 $y=3 $x2=0 $y2=0
42 X1/NET1:88 X1/NET9:50 1.757e-06 // $x=2.36 $y=3.42 $x2=0 $y2=0
43 X1/NET1:12 x1/x1/MN9:d 2.24498e-07 // $x=2.12 $y=2.02 $x2=0 $y2=0
44 x1/x1/MN12:d x1/x1/MN9:d 2.46738e-07 // $x=1.955 $y=1.735 $x2=0 $y2=0
45 X1/NET1:8 X1/X1/NET6:17 8.29865e-07 // $x=10.675 $y=2.025 $x2=0 $y2=0
46 X1/NET1:4 X1/NET7:2 8.86259e-06 // $x=2.31 $y=3 $x2=0.68 $y2=3.01
47 X1/NET1:6 X1/NET7:2 1.05661e-05 // $x=2.6 $y=3.305 $x2=0.68 $y2=3.01
48 X1/NET1:88 X1/NET7:2 2.55989e-06 // $x=2.36 $y=3.42 $x2=0.68 $y2=3.01
49 X1/NET1:16 X1/NET7:14 8.61113e-06 // $x=2.36 $y=3.42 $x2=0 $y2=0
50 X1/NET1:34 X1/NET7:20 5.09411e-06 // $x=10.5 $y=1.375 $x2=0 $y2=0
51 X1/NET1:4 X1/NET7:25 2.09808e-06 // $x=2.31 $y=3 $x2=0 $y2=0
52 X1/NET1:6 X1/NET7:25 2.89222e-06 // $x=2.6 $y=3.305 $x2=0 $y2=0
53 X1/NET1:16 X1/NET7:25 9.27537e-07 // $x=2.36 $y=3.42 $x2=0 $y2=0
54 X1/NET1:88 X1/NET7:25 4.04448e-07 // $x=2.36 $y=3.42 $x2=0 $y2=0
55 X1/NET1:2 X1/NET7:45 3.1368e-06 // $x=2.24 $y=2.93 $x2=0 $y2=0
56 X1/NET1:4 X1/NET7:47 3.1368e-06 // $x=2.31 $y=3 $x2=0 $y2=0
57 X1/NET1:4 X1/NET7:49 2.03733e-06 // $x=2.31 $y=3 $x2=0 $y2=0
58 X1/NET1:6 X1/NET7:49 4.77364e-07 // $x=2.6 $y=3.305 $x2=0 $y2=0
59 X1/NET1:88 X1/NET7:49 2.32699e-06 // $x=2.36 $y=3.42 $x2=0 $y2=0
60 X1/NET1:34 X1/NET4:40 4.96544e-06 // $x=10.5 $y=1.375 $x2=0 $y2=0
61 X1/NET1:34 X1/NET4:47 0.00023742 // $x=10.5 $y=1.375 $x2=0 $y2=0
62 X1/NET1:44 X1/NET4:47 4.41802e-07 // $x=2.12 $y=1.835 $x2=0 $y2=0
63 X1/NET1:47 X1/NET4:55 1.37108e-06 // $x=10.67 $y=1.375 $x2=0 $y2=0
64 X1/NET1:58 X1/NET4:58 2.92353e-07 // $x=13.07 $y=2.14 $x2=0 $y2=0
65 X1/NET1:34 X1/NET4:59 1.69024e-05 // $x=10.5 $y=1.375 $x2=0 $y2=0
66 X1/NET1:34 X1/NET4:66 8.06265e-07 // $x=10.5 $y=1.375 $x2=0 $y2=0
67 X1/NET1:34 X1/NET4:70 4.21301e-07 // $x=10.5 $y=1.375 $x2=0 $y2=0
68 X1/NET1:34 X1/NET4:76 1.18977e-05 // $x=10.5 $y=1.375 $x2=0 $y2=0
69 X1/NET1:58 X1/NET4:76 9.08797e-07 // $x=13.07 $y=2.14 $x2=0 $y2=0
70 X1/NET1:34 X1/NET4:78 4.22805e-06 // $x=10.5 $y=1.375 $x2=0 $y2=0
71 X1/NET1:34 X1/NET4:80 1.66432e-05 // $x=10.5 $y=1.375 $x2=0 $y2=0
72 X1/NET1:34 X1/NET4:82 7.70431e-06 // $x=10.5 $y=1.375 $x2=0 $y2=0
73 X1/NET1:34 X1/NET4:86 9.12832e-06 // $x=10.5 $y=1.375 $x2=0 $y2=0
74 X1/NET1:34 X1/NET4:88 1.22851e-05 // $x=10.5 $y=1.375 $x2=0 $y2=0
75 X1/NET1:43 X1/NET4:90 8.2292e-06 // $x=2.12 $y=2.02 $x2=0 $y2=0
76 X1/NET1:34 X1/NET4:95 1.23324e-05 // $x=10.5 $y=1.375 $x2=0 $y2=0
77 X1/NET1:34 X1/NET4:100 7.83231e-06 // $x=10.5 $y=1.375 $x2=0 $y2=0
78 X1/NET1:3 GND:8 2.03835e-06 // $x=2.53 $y=3 $x2=0 $y2=0
79 X1/NET1:12 GND:8 4.12842e-05 // $x=2.12 $y=2.02 $x2=0 $y2=0
80 X1/NET1:16 GND:8 7.58802e-07 // $x=2.36 $y=3.42 $x2=0 $y2=0
81 X1/NET1:34 GND:8 0.000770217 // $x=10.5 $y=1.375 $x2=0 $y2=0
82 X1/NET1:35 GND:8 2.49511e-05 // $x=2.185 $y=1.375 $x2=0 $y2=0
83 X1/NET1:43 GND:8 4.08662e-06 // $x=2.12 $y=2.02 $x2=0 $y2=0
84 X1/NET1:44 GND:8 3.75632e-05 // $x=2.12 $y=1.835 $x2=0 $y2=0
85 x1/x1/MN12:d GND:8 5.4958e-06 // $x=1.955 $y=1.735 $x2=0 $y2=0
86 X1/NET1:76 GND:30 2.86039e-06 // $x=12.235 $y=7.855 $x2=1.16 $y2=2.02
87 X1/NET1:8 GND:45 1.80668e-05 // $x=10.675 $y=2.025 $x2=0 $y2=0
88 X1/NET1:30 GND:45 7.00278e-07 // $x=13.07 $y=2.14 $x2=0 $y2=0
89 X1/NET1:41 GND:45 3.44825e-07 // $x=13.037 $y=5.695 $x2=0 $y2=0
90 X1/NET1:58 GND:45 5.757e-07 // $x=13.07 $y=2.14 $x2=0 $y2=0
91 X1/NET1:19 GND:241 2.01054e-05 // $x=10.675 $y=1.635 $x2=0 $y2=0
92 X1/NET1:34 GND:241 3.16924e-05 // $x=10.5 $y=1.375 $x2=0 $y2=0
93 X1/NET1:47 GND:241 6.44011e-06 // $x=10.67 $y=1.375 $x2=0 $y2=0
94 X1/NET1:19 GND:244 3.35468e-06 // $x=10.675 $y=1.635 $x2=0 $y2=0
95 X1/NET1:28 GND:244 1.78968e-05 // $x=12.895 $y=2.14 $x2=0 $y2=0
96 X1/NET1:34 GND:244 1.84902e-05 // $x=10.5 $y=1.375 $x2=0 $y2=0
97 X1/NET1:47 GND:244 1.65245e-06 // $x=10.67 $y=1.375 $x2=0 $y2=0
98 x1/x3/MN1:s GND:244 2.18283e-06 // $x=12.9 $y=0.575 $x2=0 $y2=0
99 X1/NET1:12 GND:385 2.17306e-06 // $x=2.12 $y=2.02 $x2=0 $y2=0
100 x1/x1/MN12:d GND:385 1.8264e-05 // $x=1.955 $y=1.735 $x2=0 $y2=0
101 X1/NET1:19 GND:394 2.61913e-06 // $x=10.675 $y=1.635 $x2=0 $y2=0
102 x1/x3/MN1:s GND:404 1.1298e-05 // $x=12.9 $y=0.575 $x2=0 $y2=0
103 X1/NET1:76 GND:408 1.21387e-05 // $x=12.235 $y=7.855 $x2=0 $y2=0
104 x1/x3/MN1:s GND:420 1.33082e-06 // $x=12.9 $y=0.575 $x2=0 $y2=0
105 X1/NET1:76 GND:422 1.28014e-06 // $x=12.235 $y=7.855 $x2=0 $y2=0
106 X1/NET1:19 GND:842 1.44669e-06 // $x=10.675 $y=1.635 $x2=0 $y2=0
107 X1/NET1:12 x1/x1/MN14:s 2.59057e-06 // $x=2.12 $y=2.02 $x2=0 $y2=0
108 X1/NET1:43 x1/x1/MN14:s 7.39267e-07 // $x=2.12 $y=2.02 $x2=0 $y2=0
109 X1/NET1:44 x1/x1/MN14:s 1.41609e-06 // $x=2.12 $y=1.835 $x2=0 $y2=0
110 x1/x1/MN12:d x1/x1/MN14:s 1.542e-05 // $x=1.955 $y=1.735 $x2=0 $y2=0
111 X1/NET1:12 x1/x1/MN11:s 3.48319e-06 // $x=2.12 $y=2.02 $x2=0 $y2=0
112 X1/NET1:43 x1/x1/MN11:s 2.91073e-07 // $x=2.12 $y=2.02 $x2=0 $y2=0
113 X1/NET1:88 x1/x1/MN11:s 3.98806e-07 // $x=2.36 $y=3.42 $x2=0 $y2=0
114 x1/x1/MN12:d x1/x1/MN11:s 1.66656e-05 // $x=1.955 $y=1.735 $x2=0 $y2=0
115 x1/x1/MN12:d x1/x1/MN9:s 5.15087e-07 // $x=1.955 $y=1.735 $x2=0 $y2=0
116 X1/NET1:28 x1/x3/MN2:s 1.11049e-06 // $x=12.895 $y=2.14 $x2=0 $y2=0
117 X1/NET1:76 x1/x2/MN2:s 1.87278e-06 // $x=12.235 $y=7.855 $x2=0 $y2=0
118 x1/x3/MN1:s x1/x4/MN0:s 8.67204e-06 // $x=12.9 $y=0.575 $x2=0 $y2=0
119 X1/NET1:41 X2/NET8:6 3.84453e-06 // $x=13.037 $y=5.695 $x2=0.68 $y2=3.14
120 X1/NET1:58 X2/NET1:43 3.33879e-07 // $x=13.07 $y=2.14 $x2=0 $y2=0
121 X1/NET1:41 X2/NET7:14 3.77046e-06 // $x=13.037 $y=5.695 $x2=0 $y2=0
122 X1/NET1:6 X1/X1/NET9:4 4.21826e-06 // $x=2.6 $y=3.305 $x2=0.75 $y2=2.02
123 X1/NET1:16 X1/X1/NET9:4 9.83948e-07 // $x=2.36 $y=3.42 $x2=0.75 $y2=2.02
124 X1/NET1:12 X1/X1/NET9:10 5.19023e-07 // $x=2.12 $y=2.02 $x2=1.16 $y2=2.02
125 X1/NET1:4 X1/X1/NET9:26 7.88888e-07 // $x=2.31 $y=3 $x2=0 $y2=0
126 X1/NET1:16 X1/X1/NET9:26 1.63224e-05 // $x=2.36 $y=3.42 $x2=0 $y2=0
127 X1/NET1:88 X1/X1/NET9:26 2.70306e-06 // $x=2.36 $y=3.42 $x2=0 $y2=0
128 X1/NET1:6 X1/X1/NET9:34 2.48887e-06 // $x=2.6 $y=3.305 $x2=0 $y2=0
129 X1/NET1:16 X1/X1/NET9:34 6.50221e-06 // $x=2.36 $y=3.42 $x2=0 $y2=0
130 X1/NET1:88 X1/X1/NET9:34 4.22701e-07 // $x=2.36 $y=3.42 $x2=0 $y2=0
131 X1/NET1:16 X1/X1/NET9:44 5.02121e-06 // $x=2.36 $y=3.42 $x2=0 $y2=0
132 X1/NET1:88 X1/X1/NET9:44 3.34126e-06 // $x=2.36 $y=3.42 $x2=0 $y2=0
133 X1/NET1:16 X1/X1/NET9:71 4.0821e-07 // $x=2.36 $y=3.42 $x2=0 $y2=0
134 X1/NET1:88 X1/X1/NET9:71 1.83926e-06 // $x=2.36 $y=3.42 $x2=0 $y2=0
135 X1/NET1:88 x1/x1/MP10:g 7.82233e-07 // $x=2.36 $y=3.42 $x2=0 $y2=0
136 X1/NET1:12 X1/X1/NET8:2 2.66522e-07 // $x=2.12 $y=2.02 $x2=0.68 $y2=3.01
137 X1/NET1:34 X1/X1/NET8:2 3.67414e-07 // $x=10.5 $y=1.375 $x2=0.68 $y2=3.01
138 X1/NET1:6 X1/X1/NET8:6 3.32867e-07 // $x=2.6 $y=3.305 $x2=0.68 $y2=3.14
139 X1/NET1:2 X1/X1/NET8:8 2.60098e-05 // $x=2.24 $y=2.93 $x2=0 $y2=0
140 X1/NET1:12 X1/X1/NET8:8 4.43578e-06 // $x=2.12 $y=2.02 $x2=0 $y2=0
141 X1/NET1:43 X1/X1/NET8:8 2.52048e-06 // $x=2.12 $y=2.02 $x2=0 $y2=0
142 X1/NET1:2 X1/X1/NET8:25 1.38915e-05 // $x=2.24 $y=2.93 $x2=0 $y2=0
143 X1/NET1:3 X1/X1/NET8:25 6.58872e-06 // $x=2.53 $y=3 $x2=0 $y2=0
144 X1/NET1:34 X1/X1/NET8:25 2.4631e-06 // $x=10.5 $y=1.375 $x2=0 $y2=0
145 X1/NET1:43 X1/X1/NET8:25 4.12708e-05 // $x=2.12 $y=2.02 $x2=0 $y2=0
146 X1/NET1:2 X1/X1/NET8:26 1.4991e-06 // $x=2.24 $y=2.93 $x2=0 $y2=0
147 X1/NET1:43 X1/X1/NET8:26 3.63074e-06 // $x=2.12 $y=2.02 $x2=0 $y2=0
148 X1/NET1:12 X1/X1/NET8:28 2.377e-05 // $x=2.12 $y=2.02 $x2=0 $y2=0
149 X1/NET1:43 X1/X1/NET8:28 2.97948e-05 // $x=2.12 $y=2.02 $x2=0 $y2=0
150 X1/NET1:34 X1/X1/NET8:30 0.000206548 // $x=10.5 $y=1.375 $x2=1.16 $y2=2.02
151 X1/NET1:43 X1/X1/NET8:30 4.1026e-05 // $x=2.12 $y=2.02 $x2=1.16 $y2=2.02
152 X1/NET1:44 X1/X1/NET8:30 1.04347e-05 // $x=2.12 $y=1.835 $x2=1.16 $y2=2.02
153 x1/x1/MN12:d X1/X1/NET8:30 1.40576e-06 // $x=1.955 $y=1.735 $x2=1.16 $y2=2.02
154 X1/NET1:34 X1/X1/NET8:34 3.34839e-06 // $x=10.5 $y=1.375 $x2=0 $y2=0
155 X1/NET1:2 X1/X1/NET8:38 5.43503e-06 // $x=2.24 $y=2.93 $x2=0 $y2=0
156 X1/NET1:12 X1/X1/NET8:38 1.01014e-06 // $x=2.12 $y=2.02 $x2=0 $y2=0
157 X1/NET1:2 x1/x1/MP11:g 2.00626e-06 // $x=2.24 $y=2.93 $x2=0 $y2=0
158 X1/NET1:16 x1/x1/MP11:g 3.5568e-06 // $x=2.36 $y=3.42 $x2=0 $y2=0
159 X1/NET1:88 x1/x1/MP11:g 1.66735e-06 // $x=2.36 $y=3.42 $x2=0 $y2=0
160 X1/NET1:2 X1/X1/NET8:66 2.71011e-06 // $x=2.24 $y=2.93 $x2=0 $y2=0
161 X1/NET1:12 X1/X1/NET8:66 2.60961e-06 // $x=2.12 $y=2.02 $x2=0 $y2=0
162 X1/NET1:43 X1/X1/NET8:66 9.60329e-07 // $x=2.12 $y=2.02 $x2=0 $y2=0
163 X1/NET1:44 X1/X1/NET8:66 9.51658e-07 // $x=2.12 $y=1.835 $x2=0 $y2=0
164 x1/x1/MN12:d X1/X1/NET8:66 3.24458e-06 // $x=1.955 $y=1.735 $x2=0 $y2=0
165 X1/NET1:2 X1/X1/NET8:72 2.49401e-06 // $x=2.24 $y=2.93 $x2=0 $y2=0
166 X1/NET1:10 S1:2 6.88939e-07 // $x=10.76 $y=2.11 $x2=0.68 $y2=3.01
167 X1/NET1:28 S1:12 1.92895e-05 // $x=12.895 $y=2.14 $x2=0 $y2=0
168 X1/NET1:28 S1:21 8.14277e-06 // $x=12.895 $y=2.14 $x2=0.68 $y2=3.14
169 X1/NET1:8 S1:31 6.9075e-06 // $x=10.675 $y=2.025 $x2=1.16 $y2=2.02
170 X1/NET1:19 S1:31 5.71327e-06 // $x=10.675 $y=1.635 $x2=1.16 $y2=2.02
171 X1/NET1:28 S1:31 1.74352e-05 // $x=12.895 $y=2.14 $x2=1.16 $y2=2.02
172 X1/NET1:78 S1:37 2.00493e-06 // $x=12.235 $y=6.4 $x2=0 $y2=0
173 x1/x2/MP1:s S1:37 7.86349e-07 // $x=12.055 $y=5.015 $x2=0 $y2=0
174 X1/NET1:19 x1/x3/MN2:g 2.92347e-06 // $x=10.675 $y=1.635 $x2=0 $y2=0
175 X1/NET1:47 x1/x3/MN2:g 1.91701e-06 // $x=10.67 $y=1.375 $x2=0 $y2=0
176 x1/x3/MN1:s x1/x3/MN1:g 3.60504e-05 // $x=12.9 $y=0.575 $x2=0 $y2=0
177 X1/NET1:78 x1/x2/MN1:g 5.3306e-06 // $x=12.235 $y=6.4 $x2=0 $y2=0
178 X1/NET1:28 x1/x3/MP2:g 1.18797e-05 // $x=12.895 $y=2.14 $x2=0 $y2=0
179 X1/NET1:28 S1:81 8.78691e-06 // $x=12.895 $y=2.14 $x2=0 $y2=0
180 X1/NET1:41 S1:83 1.02181e-06 // $x=13.037 $y=5.695 $x2=0 $y2=0
181 X1/NET1:41 S1:85 1.02181e-06 // $x=13.037 $y=5.695 $x2=0 $y2=0
182 x1/x2/MP1:s S1:85 3.43407e-06 // $x=12.055 $y=5.015 $x2=0 $y2=0
183 X1/NET1:78 S1:87 1.31424e-05 // $x=12.235 $y=6.4 $x2=0 $y2=0
184 X1/NET1:28 S1:89 4.53066e-07 // $x=12.895 $y=2.14 $x2=0 $y2=0
185 X1/NET1:23 S1:91 3.71941e-06 // $x=12.235 $y=6.4 $x2=0 $y2=0
186 X1/NET1:38 S1:91 3.02503e-06 // $x=12.95 $y=5.782 $x2=0 $y2=0
187 X1/NET1:51 S1:91 1.21924e-06 // $x=12.28 $y=6.4 $x2=0 $y2=0
188 X1/NET1:52 S1:91 3.65045e-07 // $x=12.28 $y=6.22 $x2=0 $y2=0
189 X1/NET1:54 S1:91 3.00046e-06 // $x=12.237 $y=5.782 $x2=0 $y2=0
190 X1/NET1:92 S1:91 5.22116e-06 // $x=12.207 $y=6.245 $x2=0 $y2=0
191 x1/x2/MP1:s S1:91 1.89747e-05 // $x=12.055 $y=5.015 $x2=0 $y2=0
192 X1/NET1:8 S1:108 4.0996e-06 // $x=10.675 $y=2.025 $x2=0 $y2=0
193 X1/NET1:19 S1:108 3.4544e-06 // $x=10.675 $y=1.635 $x2=0 $y2=0
194 X1/NET1:28 S1:108 2.31339e-06 // $x=12.895 $y=2.14 $x2=0 $y2=0
195 X1/NET1:23 NET5:3 5.26093e-05 // $x=12.235 $y=6.4 $x2=1.015 $y2=2.02
196 X1/NET1:38 NET5:3 1.51772e-05 // $x=12.95 $y=5.782 $x2=1.015 $y2=2.02
197 X1/NET1:51 NET5:3 3.72472e-06 // $x=12.28 $y=6.4 $x2=1.015 $y2=2.02
198 X1/NET1:76 NET5:3 8.30721e-07 // $x=12.235 $y=7.855 $x2=1.015 $y2=2.02
199 X1/NET1:78 NET5:3 1.74092e-05 // $x=12.235 $y=6.4 $x2=1.015 $y2=2.02
200 X1/NET1:28 NET5:16 4.90782e-05 // $x=12.895 $y=2.14 $x2=0 $y2=0
201 X1/NET1:41 NET5:16 7.05478e-06 // $x=13.037 $y=5.695 $x2=0 $y2=0
202 X1/NET1:38 NET5:20 5.11574e-06 // $x=12.95 $y=5.782 $x2=0 $y2=0
203 X1/NET1:38 NET5:35 8.76859e-07 // $x=12.95 $y=5.782 $x2=0.555 $y2=2.985
204 X1/NET1:76 NET5:35 2.91773e-06 // $x=12.235 $y=7.855 $x2=0.555 $y2=2.985
205 X1/NET1:28 NET5:37 2.63902e-05 // $x=12.895 $y=2.14 $x2=0 $y2=0
206 X1/NET1:41 NET5:37 1.69474e-05 // $x=13.037 $y=5.695 $x2=0 $y2=0
207 X1/NET1:54 NET5:37 1.86318e-06 // $x=12.237 $y=5.782 $x2=0 $y2=0
208 X1/NET1:23 NET5:38 2.02028e-05 // $x=12.235 $y=6.4 $x2=0 $y2=0
209 X1/NET1:41 NET5:38 7.6705e-05 // $x=13.037 $y=5.695 $x2=0 $y2=0
210 X1/NET1:51 NET5:38 3.71799e-05 // $x=12.28 $y=6.4 $x2=0 $y2=0
211 X1/NET1:54 NET5:38 5.05422e-05 // $x=12.237 $y=5.782 $x2=0 $y2=0
212 x1/x2/MP1:s NET5:38 9.60545e-06 // $x=12.055 $y=5.015 $x2=0 $y2=0
213 X1/NET1:38 NET5:51 7.05703e-06 // $x=12.95 $y=5.782 $x2=0 $y2=0
214 X1/NET1:58 NET5:51 4.15526e-07 // $x=13.07 $y=2.14 $x2=0 $y2=0
215 X1/NET1:23 NET5:52 9.97239e-07 // $x=12.235 $y=6.4 $x2=0 $y2=0
216 X1/NET1:38 NET5:52 1.18846e-05 // $x=12.95 $y=5.782 $x2=0 $y2=0
217 X1/NET1:51 NET5:52 3.19497e-05 // $x=12.28 $y=6.4 $x2=0 $y2=0
218 X1/NET1:76 NET5:52 8.3059e-07 // $x=12.235 $y=7.855 $x2=0 $y2=0
219 X1/NET1:78 NET5:52 3.69629e-06 // $x=12.235 $y=6.4 $x2=0 $y2=0
220 X1/NET1:28 NET5:70 1.00922e-06 // $x=12.895 $y=2.14 $x2=0 $y2=0
221 x1/x3/MN1:s NET5:70 1.56801e-06 // $x=12.9 $y=0.575 $x2=0 $y2=0
222 X1/NET1:28 NET5:73 1.91868e-05 // $x=12.895 $y=2.14 $x2=0 $y2=0
223 x1/x3/MN1:s NET5:73 1.1843e-05 // $x=12.9 $y=0.575 $x2=0 $y2=0
224 x1/x2/MP1:s x1/x3/MP1:s 1.0705e-06 // $x=12.055 $y=5.015 $x2=0 $y2=0
225 X1/NET1:38 x1/x2/MP0:s 6.25594e-06 // $x=12.95 $y=5.782 $x2=0 $y2=0
226 X1/NET1:41 x1/x2/MP0:s 1.14907e-05 // $x=13.037 $y=5.695 $x2=0 $y2=0
227 X1/NET1:76 x1/x2/MP0:s 1.56801e-06 // $x=12.235 $y=7.855 $x2=0 $y2=0
228 X1/NET1:78 x1/x2/MP0:s 1.30025e-05 // $x=12.235 $y=6.4 $x2=0 $y2=0
229 x1/x2/MP1:s x1/x2/MP0:s 2.2934e-06 // $x=12.055 $y=5.015 $x2=0 $y2=0
230 X1/NET1:41 X2/X1/NET9:2 6.91897e-06 // $x=13.037 $y=5.695 $x2=0.68 $y2=3.01
231 X1/NET1:41 X2/X1/NET8:26 9.82285e-07 // $x=13.037 $y=5.695 $x2=0 $y2=0
232 X1/NET1:8 X1/NET6:2 7.06203e-07 // $x=10.675 $y=2.025 $x2=0.68 $y2=3.01
233 X1/NET1:19 X1/NET6:2 4.23914e-06 // $x=10.675 $y=1.635 $x2=0.68 $y2=3.01
234 X1/NET1:28 X1/NET6:2 3.33252e-05 // $x=12.895 $y=2.14 $x2=0.68 $y2=3.01
235 X1/NET1:47 X1/NET6:2 6.80812e-06 // $x=10.67 $y=1.375 $x2=0.68 $y2=3.01
236 x1/x3/MN1:s X1/NET6:2 1.27188e-05 // $x=12.9 $y=0.575 $x2=0.68 $y2=3.01
237 X1/NET1:28 X1/NET6:3 1.22631e-05 // $x=12.895 $y=2.14 $x2=1.015 $y2=2.02
238 X1/NET1:30 X1/NET6:3 3.83292e-05 // $x=13.07 $y=2.14 $x2=1.015 $y2=2.02
239 X1/NET1:58 X1/NET6:3 1.41108e-05 // $x=13.07 $y=2.14 $x2=1.015 $y2=2.02
240 x1/x3/MN1:s X1/NET6:3 2.19944e-05 // $x=12.9 $y=0.575 $x2=1.015 $y2=2.02
241 X1/NET1:8 X1/NET6:6 7.4413e-07 // $x=10.675 $y=2.025 $x2=0.68 $y2=3.14
242 X1/NET1:30 X1/NET6:6 8.79233e-06 // $x=13.07 $y=2.14 $x2=0.68 $y2=3.14
243 X1/NET1:41 X1/NET6:6 2.81252e-05 // $x=13.037 $y=5.695 $x2=0.68 $y2=3.14
244 X1/NET1:58 X1/NET6:6 7.01249e-06 // $x=13.07 $y=2.14 $x2=0.68 $y2=3.14
245 x1/x3/MN1:s X1/NET6:6 6.89914e-06 // $x=12.9 $y=0.575 $x2=0.68 $y2=3.14
246 X1/NET1:28 X1/NET6:8 9.55137e-07 // $x=12.895 $y=2.14 $x2=0 $y2=0
247 x1/x3/MN1:s X1/NET6:8 6.22523e-06 // $x=12.9 $y=0.575 $x2=0 $y2=0
248 X1/NET1:28 X1/NET6:21 1.96891e-05 // $x=12.895 $y=2.14 $x2=0.68 $y2=3.14
249 X1/NET1:30 X1/NET6:21 3.27376e-06 // $x=13.07 $y=2.14 $x2=0.68 $y2=3.14
250 X1/NET1:41 X1/NET6:21 1.16254e-05 // $x=13.037 $y=5.695 $x2=0.68 $y2=3.14
251 x1/x3/MN1:s X1/NET6:21 0.000112806 // $x=12.9 $y=0.575 $x2=0.68 $y2=3.14
252 X1/NET1:30 X1/NET6:28 2.09313e-06 // $x=13.07 $y=2.14 $x2=0 $y2=0
253 x1/x3/MN1:s X1/NET6:28 3.58001e-07 // $x=12.9 $y=0.575 $x2=0 $y2=0
254 x1/x3/MN1:s X1/NET6:33 1.50639e-05 // $x=12.9 $y=0.575 $x2=0.995 $y2=1.735
255 x1/x3/MN1:s x1/x4/MN0:g 1.10954e-05 // $x=12.9 $y=0.575 $x2=0.555 $y2=2.985
256 x1/x3/MN1:s x1/x4/MP0:g 4.56043e-06 // $x=12.9 $y=0.575 $x2=0 $y2=0
257 x1/x3/MN1:s X1/NET6:44 3.28864e-07 // $x=12.9 $y=0.575 $x2=0 $y2=0
258 x1/x3/MN1:s x1/x3/MN0:d 2.76303e-05 // $x=12.9 $y=0.575 $x2=0 $y2=0
259 X1/NET1:78 X1/NET5:1 2.42961e-05 // $x=12.235 $y=6.4 $x2=0.68 $y2=2.09
260 X1/NET1:52 X1/NET5:5 8.19423e-06 // $x=12.28 $y=6.22 $x2=0.68 $y2=3.14
261 X1/NET1:54 X1/NET5:5 5.22765e-06 // $x=12.237 $y=5.782 $x2=0.68 $y2=3.14
262 X1/NET1:23 X1/NET5:6 1.45543e-06 // $x=12.235 $y=6.4 $x2=0.68 $y2=3.14
263 X1/NET1:51 X1/NET5:6 8.02143e-06 // $x=12.28 $y=6.4 $x2=0.68 $y2=3.14
264 X1/NET1:78 X1/NET5:8 7.76332e-06 // $x=12.235 $y=6.4 $x2=0 $y2=0
265 X1/NET1:76 X1/NET5:22 1.63443e-05 // $x=12.235 $y=7.855 $x2=0.68 $y2=3.14
266 X1/NET1:78 X1/NET5:22 1.7586e-05 // $x=12.235 $y=6.4 $x2=0.68 $y2=3.14
267 X1/NET1:23 x1/x2/MP1:d 5.49944e-06 // $x=12.235 $y=6.4 $x2=0 $y2=0
268 X1/NET1:38 x1/x2/MP1:d 9.19396e-06 // $x=12.95 $y=5.782 $x2=0 $y2=0
269 X1/NET1:41 x1/x2/MP1:d 5.1738e-06 // $x=13.037 $y=5.695 $x2=0 $y2=0
270 X1/NET1:51 x1/x2/MP1:d 6.88731e-07 // $x=12.28 $y=6.4 $x2=0 $y2=0
271 X1/NET1:52 x1/x2/MP1:d 2.54036e-06 // $x=12.28 $y=6.22 $x2=0 $y2=0
272 X1/NET1:54 x1/x2/MP1:d 3.38969e-06 // $x=12.237 $y=5.782 $x2=0 $y2=0
273 X1/NET1:78 x1/x2/MP1:d 4.47144e-06 // $x=12.235 $y=6.4 $x2=0 $y2=0
274 X1/NET1:92 x1/x2/MP1:d 6.51086e-05 // $x=12.207 $y=6.245 $x2=0 $y2=0
275 x1/x2/MP1:s x1/x2/MP1:d 4.91455e-05 // $x=12.055 $y=5.015 $x2=0 $y2=0
276 x1/x3/MN1:s X1/NET3:2 7.48955e-06 // $x=12.9 $y=0.575 $x2=0.68 $y2=3.01
277 x1/x3/MN1:s X1/NET3:8 2.1065e-06 // $x=12.9 $y=0.575 $x2=0 $y2=0
278 X1/NET1:41 X1/NET3:22 2.86386e-06 // $x=13.037 $y=5.695 $x2=0.68 $y2=3.14
279 x1/x3/MN1:s X1/NET3:22 7.14734e-06 // $x=12.9 $y=0.575 $x2=0.68 $y2=3.14
280 x1/x3/MN1:s x1/x4/MN0:d 2.93326e-06 // $x=12.9 $y=0.575 $x2=0 $y2=0
281 X1/NET1:41 x1/x6/MP0:d 3.11223e-06 // $x=13.037 $y=5.695 $x2=0 $y2=0
282 X1/NET1:4 VDD:4 2.59264e-06 // $x=2.31 $y=3 $x2=0.75 $y2=2.02
283 X1/NET1:12 VDD:4 1.84531e-06 // $x=2.12 $y=2.02 $x2=0.75 $y2=2.02
284 X1/NET1:16 VDD:4 2.36284e-05 // $x=2.36 $y=3.42 $x2=0.75 $y2=2.02
285 X1/NET1:88 VDD:4 5.35084e-06 // $x=2.36 $y=3.42 $x2=0.75 $y2=2.02
286 X1/NET1:41 VDD:29 1.37624e-06 // $x=13.037 $y=5.695 $x2=0 $y2=0
287 X1/NET1:10 VDD:128 1.10426e-05 // $x=10.76 $y=2.11 $x2=0 $y2=0
288 X1/NET1:19 VDD:128 2.37939e-07 // $x=10.675 $y=1.635 $x2=0 $y2=0
289 X1/NET1:23 VDD:128 3.06912e-06 // $x=12.235 $y=6.4 $x2=0 $y2=0
290 X1/NET1:30 VDD:128 1.61223e-06 // $x=13.07 $y=2.14 $x2=0 $y2=0
291 X1/NET1:34 VDD:128 1.12335e-05 // $x=10.5 $y=1.375 $x2=0 $y2=0
292 X1/NET1:38 VDD:128 2.43682e-07 // $x=12.95 $y=5.782 $x2=0 $y2=0
293 X1/NET1:41 VDD:128 9.18445e-05 // $x=13.037 $y=5.695 $x2=0 $y2=0
294 X1/NET1:47 VDD:128 1.47924e-06 // $x=10.67 $y=1.375 $x2=0 $y2=0
295 X1/NET1:51 VDD:128 6.60372e-07 // $x=12.28 $y=6.4 $x2=0 $y2=0
296 X1/NET1:54 VDD:128 3.5326e-05 // $x=12.237 $y=5.782 $x2=0 $y2=0
297 X1/NET1:58 VDD:128 2.71794e-06 // $x=13.07 $y=2.14 $x2=0 $y2=0
298 X1/NET1:92 VDD:128 2.31928e-07 // $x=12.207 $y=6.245 $x2=0 $y2=0
299 x1/x3/MN1:s VDD:128 2.608e-06 // $x=12.9 $y=0.575 $x2=0 $y2=0
300 x1/x2/MP1:s VDD:128 2.27481e-06 // $x=12.055 $y=5.015 $x2=0 $y2=0
301 X1/NET1:16 VDD:152 8.20254e-07 // $x=2.36 $y=3.42 $x2=0 $y2=0
302 X1/NET1:88 VDD:152 1.04337e-05 // $x=2.36 $y=3.42 $x2=0 $y2=0
303 X1/NET1:23 VDD:208 2.12406e-06 // $x=12.235 $y=6.4 $x2=0 $y2=0
304 X1/NET1:92 VDD:208 3.43681e-07 // $x=12.207 $y=6.245 $x2=0 $y2=0
305 x1/x3/MN1:s VDD:208 1.21812e-05 // $x=12.9 $y=0.575 $x2=0 $y2=0
306 x1/x2/MP1:s VDD:208 1.06713e-05 // $x=12.055 $y=5.015 $x2=0 $y2=0
307 X1/NET1:41 x1/x4/MP0:s 8.70975e-06 // $x=13.037 $y=5.695 $x2=0 $y2=0
308 x1/x3/MN1:s x1/x4/MP0:s 9.59213e-06 // $x=12.9 $y=0.575 $x2=0 $y2=0
309 X1/NET1:41 x1/x6/MP0:s 9.64745e-06 // $x=13.037 $y=5.695 $x2=0 $y2=0
310 X1/NET1:28 X1/X3/NSEL:6 8.55044e-06 // $x=12.895 $y=2.14 $x2=0.68 $y2=3.14
311 X1/NET1:19 X1/X3/NSEL:14 3.28355e-06 // $x=10.675 $y=1.635 $x2=0 $y2=0
312 X1/NET1:28 X1/X3/NSEL:14 3.95105e-06 // $x=12.895 $y=2.14 $x2=0 $y2=0
313 X1/NET1:47 X1/X3/NSEL:14 3.67628e-06 // $x=10.67 $y=1.375 $x2=0 $y2=0
314 x1/x3/MN1:s X1/X3/NSEL:14 6.22937e-07 // $x=12.9 $y=0.575 $x2=0 $y2=0
315 X1/NET1:28 X1/X3/NSEL:19 2.38142e-05 // $x=12.895 $y=2.14 $x2=0 $y2=0
316 X1/NET1:30 x1/x3/MP0:g 1.6035e-06 // $x=13.07 $y=2.14 $x2=0.68 $y2=3.14
317 X1/NET1:41 x1/x3/MP0:g 1.68762e-06 // $x=13.037 $y=5.695 $x2=0.68 $y2=3.14
318 X1/NET1:28 X1/X3/NSEL:25 7.35691e-06 // $x=12.895 $y=2.14 $x2=0 $y2=0
319 X1/NET1:30 X1/X3/NSEL:25 1.06612e-06 // $x=13.07 $y=2.14 $x2=0 $y2=0
320 x1/x3/MN1:s X1/X3/NSEL:25 4.54122e-05 // $x=12.9 $y=0.575 $x2=0 $y2=0
321 x1/x3/MN1:s x1/x3/MN2:d 4.5864e-07 // $x=12.9 $y=0.575 $x2=0 $y2=0
322 X1/NET1:78 X1/X2/NSEL:6 1.42138e-05 // $x=12.235 $y=6.4 $x2=0.68 $y2=3.14
323 X1/NET1:23 X1/X2/NSEL:14 3.12923e-06 // $x=12.235 $y=6.4 $x2=0 $y2=0