*SPEF "2.0"
*DESIGN "SKY130_OSU_RING_OSCILLATOR_MPR2ET_8_B0R2"
*DATE "Fri Nov  3 09:49:52 2023"
*VENDOR "Mentor Graphics Corp."
*PROGRAM "Calibre xRC"
*VERSION "v2023.2_27.15"
*DESIGN_FLOW "extraction"
*DIVIDER /
*DELIMITER :
*BUS_DELIMITER []
*T_UNIT 1 NS
*C_UNIT 1 PF
*R_UNIT 1 OHM
*L_UNIT 1 HENRY



// CIRCUIT TEMPERATURE 30C
// NOMINAL TEMPERATURE 30C

*PORTS 
 X5_Y1 B
 X4_Y1 B
 X3_Y1 B
 X2_Y1 B
 X1_Y1 B
 VDD B
 START B
 S5 B
 S4 B
 S3 B
 S2 B
 S1 B
 GND B

*D_NET X1/NET7 0.0007752
*CONN
*I x1/x11/MN8:s B 
*I x1/x11/MP8:s B 

*CAP
0 X1/NET7:5 GND:13 5.14232e-07 // $x=-1.55 $y=3.26 $x2=-0.109 $y2=3.14
1 X1/NET7:4 GND:18 2.7007e-06 // $x=-1.549 $y=3.42 $x2=-0.225 $y2=0.87
2 X1/NET7:10 GND:18 3.65539e-05 // $x=-1.549 $y=2.02 $x2=-0.225 $y2=0.87
3 x1/x11/MN8:s GND:18 3.86055e-06 // $x=-1.675 $y=1.735 $x2=-0.225 $y2=0.87
4 X1/NET7:10 GND:476 1.11991e-06 // $x=-1.549 $y=2.02 $x2=0.585 $y2=0.792
5 x1/x11/MN8:s GND:476 1.92379e-05 // $x=-1.675 $y=1.735 $x2=0.585 $y2=0.792
6 X1/NET7:10 x1/x11/MN8:d 2.30236e-06 // $x=-1.549 $y=2.02 $x2=-1.235 $y2=1.735
7 x1/x11/MN8:s x1/x11/MN8:d 1.61581e-05 // $x=-1.675 $y=1.735 $x2=-1.235 $y2=1.735
8 X1/NET7:5 X1/NET4:2 2.58334e-05 // $x=-1.55 $y=3.26 $x2=0.262 $y2=8.727
9 X1/NET7:5 X1/NET4:20 1.084e-06 // $x=-1.55 $y=3.26 $x2=0.25 $y2=0.87
10 X1/NET7:5 X1/NET4:31 1.91153e-06 // $x=-1.55 $y=3.26 $x2=5.625 $y2=1.5
11 X1/NET7:4 X1/NET4:48 6.16525e-06 // $x=-1.549 $y=3.42 $x2=11.99 $y2=8.727
12 X1/NET7:5 X1/NET4:48 1.27052e-05 // $x=-1.55 $y=3.26 $x2=11.99 $y2=8.727
13 X1/NET7:4 X1/NET4:57 3.73148e-07 // $x=-1.549 $y=3.42 $x2=14.055 $y2=0.19
14 X1/NET7:4 X1/NET4:73 7.86163e-05 // $x=-1.549 $y=3.42 $x2=22.805 $y2=0.87
15 X1/NET7:5 X1/NET4:73 1.59353e-05 // $x=-1.55 $y=3.26 $x2=22.805 $y2=0.87
16 X1/NET7:4 X1/NET4:76 5.5607e-05 // $x=-1.549 $y=3.42 $x2=24.185 $y2=1.5
17 X1/NET7:4 X1/NET4:79 2.13202e-05 // $x=-1.549 $y=3.42 $x2=26.945 $y2=0.87
18 X1/NET7:4 X1/NET4:83 7.75928e-07 // $x=-1.549 $y=3.42 $x2=24.685 $y2=6.485
19 X1/NET7:4 X1/NET4:91 2.93726e-05 // $x=-1.549 $y=3.42 $x2=26.295 $y2=8.727
20 X1/NET7:5 X1/NET4:91 8.57558e-07 // $x=-1.55 $y=3.26 $x2=26.295 $y2=8.727
21 X1/NET7:4 X1/NET4:92 3.305e-05 // $x=-1.549 $y=3.42 $x2=26.295 $y2=8.69
22 X1/NET7:5 X1/NET4:92 1.31177e-05 // $x=-1.55 $y=3.26 $x2=26.295 $y2=8.69
23 X1/NET7:10 X1/NET4:92 3.55359e-06 // $x=-1.549 $y=2.02 $x2=26.295 $y2=8.69
24 X1/NET7:5 X1/NET4:107 4.8492e-07 // $x=-1.55 $y=3.26 $x2=0 $y2=0
25 X1/NET7:4 X1/X11/13:2 8.07541e-07 // $x=-1.549 $y=3.42 $x2=0.262 $y2=8.727
26 X1/NET7:5 X1/X11/13:2 9.67918e-06 // $x=-1.55 $y=3.26 $x2=0.262 $y2=8.727
27 X1/NET7:5 X1/X11/13:7 9.49299e-07 // $x=-1.55 $y=3.26 $x2=-3.079 $y2=8.727
28 X1/NET7:10 X1/X11/13:7 1.55017e-05 // $x=-1.549 $y=2.02 $x2=-3.079 $y2=8.727
29 x1/x11/MN8:s X1/X11/13:7 3.24273e-07 // $x=-1.675 $y=1.735 $x2=-3.079 $y2=8.727
30 X1/NET7:5 X1/X11/13:25 1.28764e-05 // $x=-1.55 $y=3.26 $x2=1.945 $y2=1.5
31 X1/NET7:5 X1/X11/13:37 1.21678e-06 // $x=-1.55 $y=3.26 $x2=0 $y2=0
32 X1/NET7:10 X1/X11/13:37 4.22812e-06 // $x=-1.549 $y=2.02 $x2=0 $y2=0
33 X1/NET7:4 X1/X11/13:40 2.9936e-06 // $x=-1.549 $y=3.42 $x2=6.475 $y2=6.4
34 X1/NET7:5 X1/X11/13:40 5.16551e-06 // $x=-1.55 $y=3.26 $x2=6.475 $y2=6.4
35 X1/NET7:4 X1/X11/13:59 6.91712e-06 // $x=-1.549 $y=3.42 $x2=18.45 $y2=3.14
36 X1/NET7:5 X1/X11/13:59 4.3415e-05 // $x=-1.55 $y=3.26 $x2=18.45 $y2=3.14
37 X1/NET7:10 X1/X11/13:59 1.42454e-06 // $x=-1.549 $y=2.02 $x2=18.45 $y2=3.14
38 x1/x11/MN8:s X1/X11/13:59 6.02614e-06 // $x=-1.675 $y=1.735 $x2=18.45 $y2=3.14
39 x1/x11/MP8:s X1/X11/13:59 8.89923e-06 // $x=-1.675 $y=2.985 $x2=18.45 $y2=3.14
40 X1/NET7:10 X1/X11/13:60 4.5676e-07 // $x=-1.549 $y=2.02 $x2=0 $y2=0
41 x1/x11/MN8:s X1/X11/13:60 1.11771e-06 // $x=-1.675 $y=1.735 $x2=0 $y2=0
42 X1/NET7:4 X1/X11/13:66 2.56038e-06 // $x=-1.549 $y=3.42 $x2=18.81 $y2=1.17
43 X1/NET7:5 X1/X11/13:66 2.62263e-07 // $x=-1.55 $y=3.26 $x2=18.81 $y2=1.17
44 x1/x11/MP8:s X1/X11/13:66 2.60842e-06 // $x=-1.675 $y=2.985 $x2=18.81 $y2=1.17
45 X1/NET7:4 x1/x11/MP8:g 1.25276e-05 // $x=-1.549 $y=3.42 $x2=24.77 $y2=6.4
46 X1/NET7:5 x1/x11/MP8:g 1.99881e-06 // $x=-1.55 $y=3.26 $x2=24.77 $y2=6.4
47 x1/x11/MP8:s x1/x11/MP8:g 1.16532e-05 // $x=-1.675 $y=2.985 $x2=24.77 $y2=6.4
48 X1/NET7:5 X1/X11/13:90 7.28509e-06 // $x=-1.55 $y=3.26 $x2=24.935 $y2=8.69
49 X1/NET7:10 X1/X11/13:90 4.62524e-06 // $x=-1.549 $y=2.02 $x2=24.935 $y2=8.69
50 x1/x11/MN8:s X1/X11/13:90 8.7937e-06 // $x=-1.675 $y=1.735 $x2=24.935 $y2=8.69
51 X1/NET7:5 X1/X11/13:111 7.16015e-07 // $x=-1.55 $y=3.26 $x2=37.37 $y2=1.17
52 X1/NET7:10 X1/X11/13:111 7.82301e-07 // $x=-1.549 $y=2.02 $x2=37.37 $y2=1.17
53 X1/NET7:5 X1/X11/9:2 2.50641e-06 // $x=-1.55 $y=3.26 $x2=0.262 $y2=8.727
54 X1/NET7:4 X1/X11/9:34 2.69794e-07 // $x=-1.549 $y=3.42 $x2=8.385 $y2=0.87
55 X1/NET7:4 NET6:41 4.02133e-06 // $x=-1.549 $y=3.42 $x2=6.21 $y2=6.4
56 X1/NET7:4 NET5:21 5.12542e-07 // $x=-1.549 $y=3.42 $x2=0.25 $y2=1.17
57 X1/NET7:10 VDD:7 3.55991e-07 // $x=-1.549 $y=2.02 $x2=-3.079 $y2=8.727
58 x1/x11/MP8:s VDD:7 1.06774e-06 // $x=-1.675 $y=2.985 $x2=-3.079 $y2=8.727
59 X1/NET7:4 VDD:8 5.02981e-05 // $x=-1.549 $y=3.42 $x2=-3.079 $y2=8.69
60 X1/NET7:10 VDD:8 3.51595e-07 // $x=-1.549 $y=2.02 $x2=-3.079 $y2=8.69
61 x1/x11/MP8:s VDD:8 2.64262e-06 // $x=-1.675 $y=2.985 $x2=-3.079 $y2=8.69
62 x1/x11/MP8:s VDD:224 5.7653e-06 // $x=-1.675 $y=2.985 $x2=80.615 $y2=8.69
63 X1/NET7:4 VDD:234 1.34915e-06 // $x=-1.549 $y=3.42 $x2=86.23 $y2=0.19
64 x1/x11/MP8:s VDD:234 7.7571e-07 // $x=-1.675 $y=2.985 $x2=86.23 $y2=0.19
65 X1/NET7:4 x1/x11/MP8:d 1.05872e-05 // $x=-1.549 $y=3.42 $x2=56.09 $y2=1.595
66 x1/x11/MP8:s x1/x11/MP8:d 6.37816e-07 // $x=-1.675 $y=2.985 $x2=56.09 $y2=1.595
67 X1/NET7:4 x1/x11/MP1:s 1.39566e-06 // $x=-1.549 $y=3.42 $x2=56.09 $y2=1.92
68 X1/NET7:4 X1/X11/14:4 3.82326e-06 // $x=-1.549 $y=3.42 $x2=-4.439 $y2=8.727
69 x1/x11/MP8:s 1.34936e-05 // $x=-1.675 $y=2.985
70 x1/x11/MN8:s 1.47182e-05 // $x=-1.675 $y=1.735
71 X1/NET7:10 1.40049e-05 // $x=-1.549 $y=2.02
72 X1/NET7:5 3.49279e-05 // $x=-1.55 $y=3.26
73 X1/NET7:4 5.26718e-05 // $x=-1.549 $y=3.42

*RES
74 X1/NET7:31 x1/x11/MP8:s 7.52941 // $w=0.187 $lvl=li $x=-1.55 $y=3.56 $x2=-1.55 $y2=3.45 $l=0.11
75 X1/NET7:25 x1/x11/MN8:s 6.84492 // $w=0.187 $lvl=li $x=-1.55 $y=2.02 $x2=-1.55 $y2=1.92 $l=0.1
76 X1/NET7:10 X1/NET7:25 9.3 // $w=0.17 $lvl=mcon $x=-1.549 $y=2.02 $x2=-1.549 $y2=2.02 $l=0.17 $count=1
77 X1/NET7:10 X1/NET7:12 0.093478 // $w=0.251 $lvl=m1 $x=-1.55 $y=2.02 $x2=-1.55 $y2=2.135 $l=0.115
78 X1/NET7:7 X1/NET7:31 9.3 // $w=0.17 $lvl=mcon $x=-1.549 $y=3.56 $x2=-1.549 $y2=3.56 $l=0.17 $count=1
79 X1/NET7:5 X1/NET7:12 1.21228 // $w=0.116 $lvl=m1 $x=-1.552 $y=3.26 $x2=-1.552 $y2=2.135 $l=1.125
80 X1/NET7:4 X1/NET7:7 0.0622776 // $w=0.281 $lvl=m1 $x=-1.55 $y=3.42 $x2=-1.55 $y2=3.56 $l=0.14
81 X1/NET7:4 X1/NET7:5 0.115193 // $w=0.281 $lvl=m1 $x=-1.55 $y=3.42 $x2=-1.55 $y2=3.26 $l=0.16

*END

*D_NET GND 0.061286
*CONN
*P GND B 
*I x1/x11/MN1:g I 
*I x1/x11/MN6:g I 
*I x2/x11/MN1:g I 
*I x2/x11/MN6:g I 
*I x3/x11/MN1:g I 
*I x3/x11/MN6:g I 
*I x4/x11/MN1:g I 
*I x4/x11/MN6:g I 
*I x5/x11/MN1:g I 
*I x5/x11/MN6:g I 
*I x1/x11/MP1:g I 
*I x1/x11/MP5:g I 
*I x2/x11/MP1:g I 
*I x2/x11/MP5:g I 
*I x3/x11/MP1:g I 
*I x3/x11/MP5:g I 
*I x4/x11/MP1:g I 
*I x4/x11/MP5:g I 
*I x5/x11/MP1:g I 
*I x5/x11/MP5:g I 
*I x6/MN2:s B 
*I x1/x11/MN8:d B 
*I x1/x11/MN0:s B 
*I x1/x11/MN4:s B 
*I x1/x11/MN7:d B 
*I x1/x11/MN2:s B 
*I x1/x11/MN17:s B 
*I x1/x11/MN16:d B 
*I x1/x8/MN2:s B 
*I x1/x11/MN11:d B 
*I x1/x11/MN14:s B 
*I x1/x8/MN0:s B 
*I x1/x11/MN15:d B 
*I x1/x11/MN12:s B 
*I x1/x11/MN13:d B 
*I x1/x11/MN10:d B 
*I x1/x11/MN9:s B 
*I x1/x3/MN2:s B 
*I x1/x2/MN2:s B 
*I x1/x4/MN0:s B 
*I x1/x6/MN0:s B 
*I x1/x5/MN0:s B 
*I x1/x7/MN0:s B 
*I x2/x11/MN8:d B 
*I x2/x11/MN0:s B 
*I x2/x11/MN4:s B 
*I x2/x11/MN7:d B 
*I x2/x11/MN2:s B 
*I x2/x11/MN17:s B 
*I x2/x11/MN16:d B 
*I x2/x8/MN2:s B 
*I x2/x11/MN11:d B 
*I x2/x11/MN14:s B 
*I x2/x8/MN0:s B 
*I x2/x11/MN15:d B 
*I x2/x11/MN12:s B 
*I x2/x11/MN13:d B 
*I x2/x11/MN10:d B 
*I x2/x11/MN9:s B 
*I x2/x3/MN2:s B 
*I x2/x2/MN2:s B 
*I x2/x4/MN0:s B 
*I x2/x6/MN0:s B 
*I x2/x5/MN0:s B 
*I x2/x7/MN0:s B 
*I x3/x11/MN8:d B 
*I x3/x11/MN0:s B 
*I x3/x11/MN4:s B 
*I x3/x11/MN7:d B 
*I x3/x11/MN2:s B 
*I x3/x11/MN17:s B 
*I x3/x11/MN16:d B 
*I x3/x8/MN2:s B 
*I x3/x11/MN11:d B 
*I x3/x11/MN14:s B 
*I x3/x8/MN0:s B 
*I x3/x11/MN15:d B 
*I x3/x11/MN12:s B 
*I x3/x11/MN13:d B 
*I x3/x11/MN10:d B 
*I x3/x11/MN9:s B 
*I x3/x3/MN2:s B 
*I x3/x2/MN2:s B 
*I x3/x4/MN0:s B 
*I x3/x6/MN0:s B 
*I x3/x5/MN0:s B 
*I x3/x7/MN0:s B 
*I x4/x11/MN8:d B 
*I x4/x11/MN0:s B 
*I x4/x11/MN4:s B 
*I x4/x11/MN7:d B 
*I x4/x11/MN2:s B 
*I x4/x11/MN17:s B 
*I x4/x11/MN16:d B 
*I x4/x8/MN2:s B 
*I x4/x11/MN11:d B 
*I x4/x11/MN14:s B 
*I x4/x8/MN0:s B 
*I x4/x11/MN15:d B 
*I x4/x11/MN12:s B 
*I x4/x11/MN13:d B 
*I x4/x11/MN10:d B 
*I x4/x11/MN9:s B 
*I x4/x3/MN2:s B 
*I x4/x2/MN2:s B 
*I x4/x4/MN0:s B 
*I x4/x6/MN0:s B 
*I x4/x5/MN0:s B 
*I x4/x7/MN0:s B 
*I x5/x11/MN8:d B 
*I x5/x11/MN0:s B 
*I x5/x11/MN4:s B 
*I x5/x11/MN7:d B 
*I x5/x11/MN2:s B 
*I x5/x11/MN17:s B 
*I x5/x11/MN16:d B 
*I x5/x8/MN2:s B 
*I x5/x11/MN11:d B 
*I x5/x11/MN14:s B 
*I x5/x8/MN0:s B 
*I x5/x11/MN15:d B 
*I x5/x11/MN12:s B 
*I x5/x11/MN13:d B 
*I x5/x11/MN10:d B 
*I x5/x11/MN9:s B 
*I x5/x3/MN2:s B 
*I x5/x2/MN2:s B 
*I x5/x4/MN0:s B 
*I x5/x6/MN0:s B 
*I x5/x5/MN0:s B 
*I x5/x7/MN0:s B 
*I x1/x8/MP1:s B 
*I x2/x8/MP1:s B 
*I x3/x8/MP1:s B 
*I x4/x8/MP1:s B 
*I x5/x8/MP1:s B 

*CAP
0 GND:13 X1/NET7:5 5.14232e-07 // $x=-0.109 $y=3.14 $x2=-1.55 $y2=3.26
1 GND:18 X1/NET7:4 2.7007e-06 // $x=-0.225 $y=0.87 $x2=-1.549 $y2=3.42
2 GND:18 X1/NET7:10 3.65539e-05 // $x=-0.225 $y=0.87 $x2=-1.549 $y2=2.02
3 GND:18 x1/x11/MN8:s 3.86055e-06 // $x=-0.225 $y=0.87 $x2=-1.675 $y2=1.735
4 GND:476 X1/NET7:10 1.11991e-06 // $x=0.585 $y=0.792 $x2=-1.549 $y2=2.02
5 GND:476 x1/x11/MN8:s 1.92379e-05 // $x=0.585 $y=0.792 $x2=-1.675 $y2=1.735
6 x1/x11/MN8:d X1/NET7:10 2.30236e-06 // $x=-1.235 $y=1.735 $x2=-1.549 $y2=2.02
7 x1/x11/MN8:d x1/x11/MN8:s 1.61581e-05 // $x=-1.235 $y=1.735 $x2=-1.675 $y2=1.735
8 GND:17 X1/NET1:2 3.92486e-05 // $x=9.125 $y=0.87 $x2=-1.552 $y2=3.26
9 GND:538 X1/NET1:2 1.19817e-06 // $x=10.08 $y=0.152 $x2=-1.552 $y2=3.26
10 x1/x11/MN2:s X1/NET1:2 1.75557e-06 // $x=3.645 $y=1.735 $x2=-1.552 $y2=3.26
11 x1/x11/MN16:d X1/NET1:2 1.75285e-06 // $x=4.605 $y=1.735 $x2=-1.552 $y2=3.26
12 GND:257 X1/NET1:14 2.09795e-05 // $x=16.595 $y=0.87 $x2=0 $y2=0
13 x1/x11/MN9:s X1/NET1:14 6.4694e-07 // $x=9.005 $y=1.735 $x2=0 $y2=0
14 x1/x3/MN2:s X1/NET1:25 1.11049e-06 // $x=11.105 $y=0.575 $x2=-1.549 $y2=2.02
15 GND:17 X1/NET1:37 1.36454e-05 // $x=9.125 $y=0.87 $x2=0 $y2=0
16 GND:53 X1/NET1:37 1.34994e-06 // $x=10.08 $y=0.152 $x2=0 $y2=0
17 GND:257 X1/NET1:37 3.27569e-06 // $x=16.595 $y=0.87 $x2=0 $y2=0
18 GND:257 X1/NET1:39 3.25135e-06 // $x=16.595 $y=0.87 $x2=0 $y2=0
19 GND:17 X1/NET1:48 3.08481e-06 // $x=9.125 $y=0.87 $x2=0 $y2=0
20 GND:42 X1/NET1:88 2.86039e-06 // $x=24.6 $y=8.727 $x2=0 $y2=0
21 GND:551 X1/NET1:88 1.21387e-05 // $x=13.89 $y=8.727 $x2=0 $y2=0
22 GND:565 X1/NET1:88 1.28014e-06 // $x=14.88 $y=8.727 $x2=0 $y2=0
23 x1/x2/MN2:s X1/NET1:88 1.87278e-06 // $x=11.105 $y=7.755 $x2=0 $y2=0
24 GND:17 x1/x11/MN17:d 3.86055e-06 // $x=9.125 $y=0.87 $x2=0 $y2=0
25 GND:538 x1/x11/MN17:d 2.38538e-05 // $x=10.08 $y=0.152 $x2=0 $y2=0
26 x1/x11/MN2:s x1/x11/MN17:d 1.69246e-05 // $x=3.645 $y=1.735 $x2=0 $y2=0
27 x1/x11/MN16:d x1/x11/MN17:d 1.65832e-05 // $x=4.605 $y=1.735 $x2=0 $y2=0
28 GND:257 x1/x3/MN1:s 2.18283e-06 // $x=16.595 $y=0.87 $x2=0 $y2=0
29 GND:547 x1/x3/MN1:s 1.1298e-05 // $x=13.89 $y=0.152 $x2=0 $y2=0
30 GND:563 x1/x3/MN1:s 1.33082e-06 // $x=14.88 $y=0.152 $x2=0 $y2=0
31 x1/x4/MN0:s x1/x3/MN1:s 8.67204e-06 // $x=13.85 $y=0.575 $x2=0 $y2=0
32 x1/x11/MN16:d x1/x11/MP16:s 2.01027e-06 // $x=4.605 $y=1.735 $x2=0 $y2=0
33 GND:17 X1/NET8:5 7.70482e-05 // $x=9.125 $y=0.87 $x2=-1.55 $y2=3.26
34 GND:538 X1/NET8:5 2.39634e-06 // $x=10.08 $y=0.152 $x2=-1.55 $y2=3.26
35 x1/x11/MN11:d X1/NET8:5 1.8819e-06 // $x=5.605 $y=1.735 $x2=-1.55 $y2=3.26
36 x1/x11/MN15:d X1/NET8:5 6.0112e-06 // $x=6.565 $y=1.735 $x2=-1.55 $y2=3.26
37 GND:17 X1/NET8:25 1.3194e-05 // $x=9.125 $y=0.87 $x2=-1.549 $y2=2.02
38 GND:17 x1/x11/MN14:d 3.86055e-06 // $x=9.125 $y=0.87 $x2=0 $y2=0
39 GND:538 x1/x11/MN14:d 2.08965e-05 // $x=10.08 $y=0.152 $x2=0 $y2=0
40 x1/x11/MN11:d x1/x11/MN14:d 1.66769e-05 // $x=5.605 $y=1.735 $x2=0 $y2=0
41 x1/x11/MN15:d x1/x11/MN14:d 1.58848e-05 // $x=6.565 $y=1.735 $x2=0 $y2=0
42 x1/x11/MN12:s x1/x11/MN14:d 5.38434e-07 // $x=7.125 $y=1.735 $x2=0 $y2=0
43 GND:18 X1/NET4:1 1.5156e-06 // $x=-0.225 $y=0.87 $x2=-1.552 $y2=2.135
44 GND:1038 X1/NET4:1 4.26286e-06 // $x=-0.23 $y=2.66 $x2=-1.552 $y2=2.135
45 GND:1351 X1/NET4:1 2.92568e-07 // $x=-0.349 $y=2.66 $x2=-1.552 $y2=2.135
46 GND:18 X1/NET4:2 1.57336e-05 // $x=-0.225 $y=0.87 $x2=-1.552 $y2=3.26
47 GND:476 X1/NET4:2 4.48305e-07 // $x=0.585 $y=0.792 $x2=-1.552 $y2=3.26
48 GND:1351 X1/NET4:2 3.74051e-07 // $x=-0.349 $y=2.66 $x2=-1.552 $y2=3.26
49 x1/x11/MN8:d X1/NET4:2 2.85151e-06 // $x=-1.235 $y=1.735 $x2=-1.552 $y2=3.26
50 GND:13 X1/NET4:3 1.28577e-05 // $x=-0.109 $y=3.14 $x2=-1.55 $y2=3.42
51 GND:17 X1/NET4:3 4.09494e-07 // $x=9.125 $y=0.87 $x2=-1.55 $y2=3.42
52 GND:18 X1/NET4:3 2.73828e-06 // $x=-0.225 $y=0.87 $x2=-1.55 $y2=3.42
53 GND:246 X1/NET4:3 1.71312e-05 // $x=1.61 $y=2.58 $x2=-1.55 $y2=3.42
54 GND:326 X1/NET4:3 1.26361e-05 // $x=-0.16 $y=2.58 $x2=-1.55 $y2=3.42
55 GND:329 X1/NET4:3 1.56523e-05 // $x=1.48 $y=2.58 $x2=-1.55 $y2=3.42
56 GND:367 X1/NET4:3 3.47442e-06 // $x=0.15 $y=2.395 $x2=-1.55 $y2=3.42
57 GND:368 X1/NET4:3 3.41196e-05 // $x=0.15 $y=2.58 $x2=-1.55 $y2=3.42
58 GND:1038 X1/NET4:3 4.41163e-06 // $x=-0.23 $y=2.66 $x2=-1.55 $y2=3.42
59 GND:1043 X1/NET4:3 5.0586e-07 // $x=-0.109 $y=3.14 $x2=-1.55 $y2=3.42
60 GND:1300 X1/NET4:3 1.39085e-06 // $x=-0.35 $y=2.495 $x2=-1.55 $y2=3.42
61 GND:1351 X1/NET4:3 1.84213e-06 // $x=-0.349 $y=2.66 $x2=-1.55 $y2=3.42
62 x1/x11/MN4:s X1/NET4:3 1.18384e-06 // $x=0.285 $y=1.735 $x2=-1.55 $y2=3.42
63 GND:246 X1/NET4:5 1.01507e-05 // $x=1.61 $y=2.58 $x2=-1.55 $y2=3.26
64 GND:17 X1/NET4:12 4.6412e-06 // $x=9.125 $y=0.87 $x2=-1.55 $y2=2.135
65 x1/x11/MN7:d X1/NET4:13 1.17835e-06 // $x=2.165 $y=1.735 $x2=0 $y2=0
66 GND:39 X1/NET4:14 1.47522e-05 // $x=6.125 $y=8.575 $x2=0 $y2=0
67 GND:42 X1/NET4:14 4.56462e-07 // $x=24.6 $y=8.727 $x2=0 $y2=0
68 GND:507 X1/NET4:14 6.94575e-07 // $x=11.145 $y=8.727 $x2=0 $y2=0
69 GND:520 X1/NET4:14 6.24623e-06 // $x=6.62 $y=6.4 $x2=0 $y2=0
70 GND:39 X1/NET4:15 1.16593e-05 // $x=6.125 $y=8.575 $x2=0 $y2=0
71 GND:520 X1/NET4:15 6.47498e-06 // $x=6.62 $y=6.4 $x2=0 $y2=0
72 GND:324 X1/NET4:20 1.9573e-06 // $x=-0.23 $y=2.98 $x2=0 $y2=0
73 GND:326 X1/NET4:20 5.82981e-06 // $x=-0.16 $y=2.58 $x2=0 $y2=0
74 GND:368 X1/NET4:20 2.53417e-06 // $x=0.15 $y=2.58 $x2=0 $y2=0
75 GND:1038 X1/NET4:20 8.22202e-06 // $x=-0.23 $y=2.66 $x2=0 $y2=0
76 GND:1300 X1/NET4:20 2.02333e-06 // $x=-0.35 $y=2.495 $x2=0 $y2=0
77 GND:13 X1/NET4:29 2.88942e-05 // $x=-0.109 $y=3.14 $x2=0 $y2=0
78 GND:329 X1/NET4:29 7.63343e-06 // $x=1.48 $y=2.58 $x2=0 $y2=0
79 GND:363 X1/NET4:29 4.57046e-07 // $x=-0.23 $y=3.14 $x2=0 $y2=0
80 GND:368 X1/NET4:29 2.1884e-07 // $x=0.15 $y=2.58 $x2=0 $y2=0
81 GND:1043 X1/NET4:29 8.45338e-07 // $x=-0.109 $y=3.14 $x2=0 $y2=0
82 GND:246 X1/NET4:31 2.10441e-05 // $x=1.61 $y=2.58 $x2=-1.549 $y2=3.56
83 GND:324 X1/NET4:31 6.35016e-06 // $x=-0.23 $y=2.98 $x2=-1.549 $y2=3.56
84 GND:329 X1/NET4:31 5.44387e-06 // $x=1.48 $y=2.58 $x2=-1.549 $y2=3.56
85 GND:368 X1/NET4:31 6.62367e-07 // $x=0.15 $y=2.58 $x2=-1.549 $y2=3.56
86 GND:470 X1/NET4:31 4.15947e-06 // $x=-0.23 $y=3.055 $x2=-1.549 $y2=3.56
87 GND:482 X1/NET4:31 1.20915e-06 // $x=1.61 $y=2.58 $x2=-1.549 $y2=3.56
88 x1/x11/MP5:g X1/NET4:31 1.01846e-06 // $x=1.61 $y=3.485 $x2=-1.549 $y2=3.56
89 GND:1353 X1/NET4:31 6.07887e-07 // $x=1.61 $y=2.66 $x2=-1.549 $y2=3.56
90 GND:17 X1/NET4:38 6.81193e-07 // $x=9.125 $y=0.87 $x2=0 $y2=0
91 GND:39 X1/NET4:41 1.20107e-05 // $x=6.125 $y=8.575 $x2=0 $y2=0
92 GND:42 X1/NET4:41 8.48754e-06 // $x=24.6 $y=8.727 $x2=0 $y2=0
93 GND:507 X1/NET4:41 3.25882e-06 // $x=11.145 $y=8.727 $x2=0 $y2=0
94 GND:520 X1/NET4:41 6.08247e-06 // $x=6.62 $y=6.4 $x2=0 $y2=0
95 GND:18 X1/NET4:48 9.71499e-06 // $x=-0.225 $y=0.87 $x2=0 $y2=0
96 GND:368 X1/NET4:48 5.71757e-07 // $x=0.15 $y=2.58 $x2=0 $y2=0
97 x1/x11/MN8:d X1/NET4:48 4.13202e-06 // $x=-1.235 $y=1.735 $x2=0 $y2=0
98 GND:13 X1/NET4:52 4.6094e-07 // $x=-0.109 $y=3.14 $x2=0 $y2=0
99 GND:329 X1/NET4:52 2.42607e-05 // $x=1.48 $y=2.58 $x2=0 $y2=0
100 GND:363 X1/NET4:52 2.42882e-05 // $x=-0.23 $y=3.14 $x2=0 $y2=0
101 GND:246 X1/NET4:56 4.53913e-06 // $x=1.61 $y=2.58 $x2=0 $y2=0
102 GND:329 X1/NET4:56 1.89229e-05 // $x=1.48 $y=2.58 $x2=0 $y2=0
103 GND:375 X1/NET4:56 1.95509e-05 // $x=1.61 $y=2.58 $x2=0 $y2=0
104 GND:482 X1/NET4:56 2.22369e-06 // $x=1.61 $y=2.58 $x2=0 $y2=0
105 x1/x11/MP5:g X1/NET4:56 2.40993e-06 // $x=1.61 $y=3.485 $x2=0 $y2=0
106 GND:1353 X1/NET4:56 5.9409e-07 // $x=1.61 $y=2.66 $x2=0 $y2=0
107 GND:324 X1/NET4:57 6.43816e-07 // $x=-0.23 $y=2.98 $x2=0 $y2=0
108 GND:329 X1/NET4:57 2.4267e-05 // $x=1.48 $y=2.58 $x2=0 $y2=0
109 GND:363 X1/NET4:57 5.13416e-07 // $x=-0.23 $y=3.14 $x2=0 $y2=0
110 GND:470 X1/NET4:57 3.25371e-07 // $x=-0.23 $y=3.055 $x2=0 $y2=0
111 GND:39 X1/NET4:59 8.6425e-06 // $x=6.125 $y=8.575 $x2=0 $y2=0
112 GND:246 X1/NET4:66 3.43456e-07 // $x=1.61 $y=2.58 $x2=0 $y2=0
113 GND:368 X1/NET4:66 8.77498e-07 // $x=0.15 $y=2.58 $x2=0 $y2=0
114 GND:375 X1/NET4:66 1.56808e-05 // $x=1.61 $y=2.58 $x2=0 $y2=0
115 GND:363 X1/NET4:70 2.52635e-07 // $x=-0.23 $y=3.14 $x2=0 $y2=0
116 GND:239 X1/NET4:75 6.97133e-06 // $x=-1.734 $y=1.5 $x2=0 $y2=0
117 GND:18 X1/NET4:76 2.87379e-07 // $x=-0.225 $y=0.87 $x2=0 $y2=0
118 GND:329 X1/NET4:76 7.71893e-07 // $x=1.48 $y=2.58 $x2=0 $y2=0
119 GND:363 X1/NET4:76 8.21302e-06 // $x=-0.23 $y=3.14 $x2=0 $y2=0
120 GND:368 X1/NET4:76 2.65604e-05 // $x=0.15 $y=2.58 $x2=0 $y2=0
121 GND:324 X1/NET4:83 3.26886e-06 // $x=-0.23 $y=2.98 $x2=0 $y2=0
122 GND:39 X1/NET4:89 3.9681e-06 // $x=6.125 $y=8.575 $x2=0 $y2=0
123 GND:251 X1/NET4:89 6.75914e-06 // $x=6.62 $y=6.4 $x2=0 $y2=0
124 GND:18 X1/NET4:91 9.68441e-06 // $x=-0.225 $y=0.87 $x2=0 $y2=0
125 GND:368 X1/NET4:91 6.52611e-05 // $x=0.15 $y=2.58 $x2=0 $y2=0
126 GND:18 X1/NET4:92 1.0425e-05 // $x=-0.225 $y=0.87 $x2=0 $y2=0
127 GND:329 X1/NET4:95 2.24677e-05 // $x=1.48 $y=2.58 $x2=0 $y2=0
128 GND:368 X1/NET4:99 1.91993e-05 // $x=0.15 $y=2.58 $x2=0 $y2=0
129 GND:375 X1/NET4:99 9.9485e-06 // $x=1.61 $y=2.58 $x2=0 $y2=0
130 GND:18 X1/NET4:107 2.49083e-06 // $x=-0.225 $y=0.87 $x2=0 $y2=0
131 GND:470 X1/NET4:107 2.86575e-06 // $x=-0.23 $y=3.055 $x2=0 $y2=0
132 GND:476 X1/NET4:107 1.61428e-06 // $x=0.585 $y=0.792 $x2=0 $y2=0
133 GND:1038 X1/NET4:107 1.15686e-05 // $x=-0.23 $y=2.66 $x2=0 $y2=0
134 GND:1351 X1/NET4:107 1.79728e-06 // $x=-0.349 $y=2.66 $x2=0 $y2=0
135 GND:246 X1/NET4:114 2.73282e-06 // $x=1.61 $y=2.58 $x2=0 $y2=0
136 GND:329 X1/NET4:114 3.19363e-06 // $x=1.48 $y=2.58 $x2=0 $y2=0
137 GND:475 X1/NET4:114 1.90735e-06 // $x=2.245 $y=0.792 $x2=0 $y2=0
138 GND:476 X1/NET4:114 7.19732e-07 // $x=0.585 $y=0.792 $x2=0 $y2=0
139 x1/x11/MN4:s X1/NET4:114 2.80609e-06 // $x=0.285 $y=1.735 $x2=0 $y2=0
140 GND:246 X1/NET4:117 1.18074e-05 // $x=1.61 $y=2.58 $x2=0 $y2=0
141 GND:329 X1/NET4:117 2.85369e-06 // $x=1.48 $y=2.58 $x2=0 $y2=0
142 GND:470 X1/NET4:117 1.92809e-06 // $x=-0.23 $y=3.055 $x2=0 $y2=0
143 GND:475 X1/NET4:117 1.23026e-06 // $x=2.245 $y=0.792 $x2=0 $y2=0
144 GND:482 X1/NET4:117 1.56654e-05 // $x=1.61 $y=2.58 $x2=0 $y2=0
145 x1/x11/MP5:g X1/NET4:117 1.22168e-06 // $x=1.61 $y=3.485 $x2=0 $y2=0
146 GND:1353 X1/NET4:117 1.79728e-06 // $x=1.61 $y=2.66 $x2=0 $y2=0
147 GND:482 X1/NET4:124 7.55168e-07 // $x=1.61 $y=2.58 $x2=0 $y2=0
148 GND:538 X1/NET4:127 1.27613e-06 // $x=10.08 $y=0.152 $x2=0 $y2=0
149 GND:39 X1/NET4:139 3.33792e-07 // $x=6.125 $y=8.575 $x2=0 $y2=0
150 GND:42 X1/NET4:139 2.15467e-06 // $x=24.6 $y=8.727 $x2=0 $y2=0
151 GND:507 X1/NET4:139 1.37276e-05 // $x=11.145 $y=8.727 $x2=0 $y2=0
152 GND:518 X1/NET4:139 1.54184e-05 // $x=6.62 $y=7.855 $x2=0 $y2=0
153 GND:520 X1/NET4:139 1.74828e-05 // $x=6.62 $y=6.4 $x2=0 $y2=0
154 GND:246 X1/NET4:147 1.30684e-06 // $x=1.61 $y=2.58 $x2=0 $y2=0
155 GND:368 X1/NET4:147 1.53955e-06 // $x=0.15 $y=2.58 $x2=0 $y2=0
156 GND:476 X1/NET4:147 7.00879e-07 // $x=0.585 $y=0.792 $x2=0 $y2=0
157 GND:1038 X1/NET4:147 8.53245e-06 // $x=-0.23 $y=2.66 $x2=0 $y2=0
158 GND:1351 X1/NET4:147 2.0065e-06 // $x=-0.349 $y=2.66 $x2=0 $y2=0
159 x1/x11/MN4:s X1/NET4:147 4.65159e-06 // $x=0.285 $y=1.735 $x2=0 $y2=0
160 GND:17 X1/NET4:149 7.30593e-07 // $x=9.125 $y=0.87 $x2=0 $y2=0
161 GND:246 X1/NET4:149 1.04457e-06 // $x=1.61 $y=2.58 $x2=0 $y2=0
162 GND:475 X1/NET4:149 1.96287e-06 // $x=2.245 $y=0.792 $x2=0 $y2=0
163 GND:482 X1/NET4:149 1.34888e-05 // $x=1.61 $y=2.58 $x2=0 $y2=0
164 GND:1353 X1/NET4:149 4.72046e-06 // $x=1.61 $y=2.66 $x2=0 $y2=0
165 x1/x11/MN7:d X1/NET4:149 8.52056e-06 // $x=2.165 $y=1.735 $x2=0 $y2=0
166 x1/x11/MP1:g x1/x11/MP0:g 5.64727e-05 // $x=-0.35 $y=3.485 $x2=0 $y2=0
167 GND:470 x1/x11/MP4:g 2.97269e-06 // $x=-0.23 $y=3.055 $x2=0 $y2=0
168 GND:1043 x1/x11/MP4:g 1.66528e-06 // $x=-0.109 $y=3.14 $x2=0 $y2=0
169 x1/x11/MP1:g x1/x11/MP4:g 1.82074e-05 // $x=-0.35 $y=3.485 $x2=0 $y2=0
170 x1/x11/MP5:g x1/x11/MP4:g 3.3417e-06 // $x=1.61 $y=3.485 $x2=0 $y2=0
171 x1/x11/MP5:g x1/x11/MP7:g 5.81639e-05 // $x=1.61 $y=3.485 $x2=0 $y2=0
172 x1/x11/MP5:g x1/x11/MP6:g 5.96663e-05 // $x=1.61 $y=3.485 $x2=0 $y2=0
173 GND:18 X1/NET4:169 4.94013e-06 // $x=-0.225 $y=0.87 $x2=0 $y2=0
174 GND:476 X1/NET4:169 6.61034e-06 // $x=0.585 $y=0.792 $x2=0 $y2=0
175 GND:1300 X1/NET4:169 4.07325e-05 // $x=-0.35 $y=2.495 $x2=0 $y2=0
176 x1/x11/MN8:d X1/NET4:169 6.325e-06 // $x=-1.235 $y=1.735 $x2=0 $y2=0
177 GND:17 X1/NET4:174 4.60507e-06 // $x=9.125 $y=0.87 $x2=0 $y2=0
178 GND:246 X1/NET4:174 1.65667e-06 // $x=1.61 $y=2.58 $x2=0 $y2=0
179 GND:367 X1/NET4:174 2.61927e-06 // $x=0.15 $y=2.395 $x2=0 $y2=0
180 GND:368 X1/NET4:174 5.04848e-07 // $x=0.15 $y=2.58 $x2=0 $y2=0
181 GND:475 X1/NET4:174 6.28549e-06 // $x=2.245 $y=0.792 $x2=0 $y2=0
182 GND:476 X1/NET4:174 4.57972e-07 // $x=0.585 $y=0.792 $x2=0 $y2=0
183 GND:1300 X1/NET4:174 1.29777e-05 // $x=-0.35 $y=2.495 $x2=0 $y2=0
184 GND:1305 X1/NET4:174 1.46074e-06 // $x=1.61 $y=2.495 $x2=0 $y2=0
185 x1/x11/MN4:s X1/NET4:174 1.16525e-05 // $x=0.285 $y=1.735 $x2=0 $y2=0
186 GND:17 X1/NET4:179 3.79615e-06 // $x=9.125 $y=0.87 $x2=0 $y2=0
187 GND:246 X1/NET4:179 3.40568e-06 // $x=1.61 $y=2.58 $x2=0 $y2=0
188 GND:475 X1/NET4:179 6.61034e-06 // $x=2.245 $y=0.792 $x2=0 $y2=0
189 GND:1305 X1/NET4:179 4.05756e-05 // $x=1.61 $y=2.495 $x2=0 $y2=0
190 GND:17 X1/NET4:184 4.60479e-06 // $x=9.125 $y=0.87 $x2=0 $y2=0
191 GND:475 X1/NET4:184 6.75389e-06 // $x=2.245 $y=0.792 $x2=0 $y2=0
192 GND:1305 X1/NET4:184 4.1465e-05 // $x=1.61 $y=2.495 $x2=0 $y2=0
193 x1/x11/MN7:d X1/NET4:184 1.13609e-05 // $x=2.165 $y=1.735 $x2=0 $y2=0
194 GND:17 X1/NET4:189 4.74623e-06 // $x=9.125 $y=0.87 $x2=0 $y2=0
195 GND:538 X1/NET4:189 4.95394e-06 // $x=10.08 $y=0.152 $x2=0 $y2=0
196 x1/x11/MN7:d X1/NET4:189 2.87697e-06 // $x=2.165 $y=1.735 $x2=0 $y2=0
197 GND:17 X1/NET4:194 3.56912e-06 // $x=9.125 $y=0.87 $x2=0 $y2=0
198 GND:538 X1/NET4:194 6.61034e-06 // $x=10.08 $y=0.152 $x2=0 $y2=0
199 x1/x11/MN2:s X1/NET4:194 8.10192e-06 // $x=3.645 $y=1.735 $x2=0 $y2=0
200 GND:18 X1/NET4:200 4.51273e-07 // $x=-0.225 $y=0.87 $x2=0 $y2=0
201 GND:476 X1/NET4:200 6.95276e-07 // $x=0.585 $y=0.792 $x2=0 $y2=0
202 GND:1038 X1/NET4:200 4.46399e-06 // $x=-0.23 $y=2.66 $x2=0 $y2=0
203 GND:1351 X1/NET4:200 4.30915e-05 // $x=-0.349 $y=2.66 $x2=0 $y2=0
204 GND:246 X1/NET4:202 1.41058e-06 // $x=1.61 $y=2.58 $x2=0 $y2=0
205 GND:329 X1/NET4:202 2.23371e-06 // $x=1.48 $y=2.58 $x2=0 $y2=0
206 GND:368 X1/NET4:202 2.11375e-07 // $x=0.15 $y=2.58 $x2=0 $y2=0
207 GND:470 X1/NET4:202 7.22719e-07 // $x=-0.23 $y=3.055 $x2=0 $y2=0
208 GND:475 X1/NET4:202 7.94506e-07 // $x=2.245 $y=0.792 $x2=0 $y2=0
209 GND:476 X1/NET4:202 1.15503e-06 // $x=0.585 $y=0.792 $x2=0 $y2=0
210 GND:1038 X1/NET4:202 5.75996e-07 // $x=-0.23 $y=2.66 $x2=0 $y2=0
211 GND:1351 X1/NET4:202 7.488e-06 // $x=-0.349 $y=2.66 $x2=0 $y2=0
212 GND:1353 X1/NET4:202 8.08794e-07 // $x=1.61 $y=2.66 $x2=0 $y2=0
213 GND:246 X1/NET4:204 3.86717e-06 // $x=1.61 $y=2.58 $x2=0 $y2=0
214 GND:329 X1/NET4:204 1.16654e-06 // $x=1.48 $y=2.58 $x2=0 $y2=0
215 GND:475 X1/NET4:204 9.58455e-07 // $x=2.245 $y=0.792 $x2=0 $y2=0
216 GND:482 X1/NET4:204 1.79728e-06 // $x=1.61 $y=2.58 $x2=0 $y2=0
217 GND:1353 X1/NET4:204 4.43908e-05 // $x=1.61 $y=2.66 $x2=0 $y2=0
218 GND:17 X1/NET4:206 3.95033e-07 // $x=9.125 $y=0.87 $x2=0 $y2=0
219 GND:475 X1/NET4:206 1.33337e-06 // $x=2.245 $y=0.792 $x2=0 $y2=0
220 GND:482 X1/NET4:206 1.79728e-06 // $x=1.61 $y=2.58 $x2=0 $y2=0
221 GND:1353 X1/NET4:206 4.43419e-05 // $x=1.61 $y=2.66 $x2=0 $y2=0
222 GND:538 X1/NET4:210 1.04796e-06 // $x=10.08 $y=0.152 $x2=0 $y2=0
223 GND:39 x1/x8/MP1:d 3.33792e-07 // $x=6.125 $y=8.575 $x2=0 $y2=0
224 GND:251 x1/x8/MP1:d 7.31412e-06 // $x=6.62 $y=6.4 $x2=0 $y2=0
225 GND:520 x1/x8/MP1:d 4.47144e-06 // $x=6.62 $y=6.4 $x2=0 $y2=0
226 GND:1053 x1/x8/MP1:d 6.57415e-05 // $x=6.592 $y=6.245 $x2=0 $y2=0
227 x1/x8/MP1:s x1/x8/MP1:d 4.96499e-05 // $x=6.44 $y=5.015 $x2=0 $y2=0
228 GND:17 X1/X11/2:13 6.2336e-05 // $x=9.125 $y=0.87 $x2=0 $y2=0
229 GND:538 X1/X11/2:13 2.31808e-06 // $x=10.08 $y=0.152 $x2=0 $y2=0
230 x1/x11/MN2:s X1/X11/2:13 5.82975e-06 // $x=3.645 $y=1.735 $x2=0 $y2=0
231 GND:17 X1/X11/2:19 4.89664e-06 // $x=9.125 $y=0.87 $x2=0 $y2=0
232 GND:17 X1/X11/2:23 4.97856e-06 // $x=9.125 $y=0.87 $x2=0 $y2=0
233 GND:17 X1/X11/2:37 2.42073e-06 // $x=9.125 $y=0.87 $x2=0 $y2=0
234 x1/x11/MN2:s X1/X11/2:37 2.06673e-07 // $x=3.645 $y=1.735 $x2=0 $y2=0
235 GND:368 X1/X11/2:40 2.66252e-07 // $x=0.15 $y=2.58 $x2=0 $y2=0
236 x1/x11/MN16:d X1/X11/2:41 2.17024e-06 // $x=4.605 $y=1.735 $x2=0 $y2=0
237 x1/x11/MN11:d X1/X11/2:41 3.26613e-06 // $x=5.605 $y=1.735 $x2=0 $y2=0
238 x1/x11/MN15:d X1/X11/2:41 3.47283e-06 // $x=6.565 $y=1.735 $x2=0 $y2=0
239 GND:17 X1/X11/2:42 7.83247e-05 // $x=9.125 $y=0.87 $x2=0 $y2=0
240 x1/x11/MN2:s X1/X11/2:42 2.59734e-06 // $x=3.645 $y=1.735 $x2=0 $y2=0
241 GND:17 X1/X11/2:55 8.02308e-06 // $x=9.125 $y=0.87 $x2=0 $y2=0
242 GND:538 X1/X11/2:55 4.88319e-05 // $x=10.08 $y=0.152 $x2=0 $y2=0
243 x1/x11/MN7:d X1/X11/2:55 1.02633e-05 // $x=2.165 $y=1.735 $x2=0 $y2=0
244 GND:17 X1/X11/2:59 2.83769e-07 // $x=9.125 $y=0.87 $x2=0 $y2=0
245 GND:538 X1/X11/2:59 9.19873e-07 // $x=10.08 $y=0.152 $x2=0 $y2=0
246 x1/x11/MN2:s X1/X11/2:59 3.81011e-06 // $x=3.645 $y=1.735 $x2=0 $y2=0
247 GND:17 X1/X11/2:68 3.18128e-06 // $x=9.125 $y=0.87 $x2=0 $y2=0
248 GND:538 X1/X11/2:68 2.11875e-06 // $x=10.08 $y=0.152 $x2=0 $y2=0
249 GND:17 X1/X11/2:73 2.20618e-06 // $x=9.125 $y=0.87 $x2=0 $y2=0
250 GND:538 X1/X11/2:73 4.37318e-06 // $x=10.08 $y=0.152 $x2=0 $y2=0
251 x1/x11/MN7:d X1/X11/2:73 9.22343e-07 // $x=2.165 $y=1.735 $x2=0 $y2=0
252 x1/x11/MN2:s X1/X11/2:73 1.27069e-05 // $x=3.645 $y=1.735 $x2=0 $y2=0
253 GND:17 X1/X11/2:82 2.31194e-06 // $x=9.125 $y=0.87 $x2=0 $y2=0
254 GND:538 X1/X11/2:82 2.34309e-06 // $x=10.08 $y=0.152 $x2=0 $y2=0
255 GND:538 X1/X11/2:88 2.57215e-06 // $x=10.08 $y=0.152 $x2=0 $y2=0
256 x1/x11/MN12:s X1/X11/2:88 5.76383e-07 // $x=7.125 $y=1.735 $x2=0 $y2=0
257 GND:17 X1/X11/2:103 5.79334e-06 // $x=9.125 $y=0.87 $x2=0 $y2=0
258 GND:538 X1/X11/2:103 6.61034e-06 // $x=10.08 $y=0.152 $x2=0 $y2=0
259 x1/x11/MN16:d X1/X11/2:103 1.09956e-05 // $x=4.605 $y=1.735 $x2=0 $y2=0
260 GND:17 X1/X11/2:108 4.65461e-06 // $x=9.125 $y=0.87 $x2=0 $y2=0
261 GND:538 X1/X11/2:108 6.75389e-06 // $x=10.08 $y=0.152 $x2=0 $y2=0
262 x1/x11/MN12:s X1/X11/2:108 9.24732e-06 // $x=7.125 $y=1.735 $x2=0 $y2=0
263 GND:17 X1/X11/2:113 6.66161e-06 // $x=9.125 $y=0.87 $x2=0 $y2=0
264 GND:538 X1/X11/2:113 6.61034e-06 // $x=10.08 $y=0.152 $x2=0 $y2=0
265 x1/x11/MN9:s X1/X11/2:113 1.17195e-05 // $x=9.005 $y=1.735 $x2=0 $y2=0
266 GND:17 X1/X11/2:119 4.29423e-07 // $x=9.125 $y=0.87 $x2=0 $y2=0
267 GND:538 X1/X11/2:119 1.40969e-06 // $x=10.08 $y=0.152 $x2=0 $y2=0
268 GND:538 X1/X11/2:121 1.00621e-06 // $x=10.08 $y=0.152 $x2=0 $y2=0
269 GND:17 X1/X11/2:123 6.99276e-07 // $x=9.125 $y=0.87 $x2=0 $y2=0
270 GND:538 X1/X11/2:123 1.63967e-06 // $x=10.08 $y=0.152 $x2=0 $y2=0
271 GND:17 X1/NET9:5 6.79307e-05 // $x=9.125 $y=0.87 $x2=-1.55 $y2=3.26
272 GND:538 X1/NET9:5 1.19817e-06 // $x=10.08 $y=0.152 $x2=-1.55 $y2=3.26
273 x1/x11/MN13:d X1/NET9:5 3.78386e-06 // $x=8.045 $y=1.735 $x2=-1.55 $y2=3.26
274 x1/x11/MN9:s X1/NET9:5 1.08164e-05 // $x=9.005 $y=1.735 $x2=-1.55 $y2=3.26
275 GND:17 X1/NET9:8 3.63863e-06 // $x=9.125 $y=0.87 $x2=0 $y2=0
276 GND:17 x1/x11/MN10:s 3.86055e-06 // $x=9.125 $y=0.87 $x2=0 $y2=0
277 GND:538 x1/x11/MN10:s 2.38538e-05 // $x=10.08 $y=0.152 $x2=0 $y2=0
278 x1/x11/MN13:d x1/x11/MN10:s 1.52997e-05 // $x=8.045 $y=1.735 $x2=0 $y2=0
279 x1/x11/MN9:s x1/x11/MN10:s 1.72479e-05 // $x=9.005 $y=1.735 $x2=0 $y2=0
280 GND:17 x1/x11/MP9:s 3.62667e-07 // $x=9.125 $y=0.87 $x2=0 $y2=0
281 GND:53 x1/x11/MP9:s 1.05508e-06 // $x=10.08 $y=0.152 $x2=0 $y2=0
282 x1/x11/MN9:s x1/x11/MP9:s 3.41974e-06 // $x=9.005 $y=1.735 $x2=0 $y2=0
283 GND:64 X2/NET7:4 2.7007e-06 // $x=18.335 $y=0.87 $x2=-1.549 $y2=3.42
284 GND:59 X2/NET7:5 5.14232e-07 // $x=18.45 $y=3.14 $x2=-1.55 $y2=3.26
285 GND:64 X2/NET7:10 3.65539e-05 // $x=18.335 $y=0.87 $x2=-1.549 $y2=2.02
286 GND:590 X2/NET7:10 1.11991e-06 // $x=19.145 $y=0.792 $x2=-1.549 $y2=2.02
287 x2/x11/MN8:d X2/NET7:10 2.30236e-06 // $x=17.325 $y=1.735 $x2=-1.549 $y2=2.02
288 GND:64 x2/x11/MN8:s 3.86055e-06 // $x=18.335 $y=0.87 $x2=-1.675 $y2=1.735
289 GND:590 x2/x11/MN8:s 1.92379e-05 // $x=19.145 $y=0.792 $x2=-1.675 $y2=1.735
290 x2/x11/MN8:d x2/x11/MN8:s 1.61581e-05 // $x=17.325 $y=1.735 $x2=-1.675 $y2=1.735
291 GND:63 X2/NET1:2 3.92486e-05 // $x=27.685 $y=0.87 $x2=-1.552 $y2=3.26