*SPEF "2.0"
*DESIGN "SKY130_OSU_RING_OSCILLATOR_MPR2CA_8_B0R2"
*DATE "Thu Nov  2 18:08:18 2023"
*VENDOR "Mentor Graphics Corp."
*PROGRAM "Calibre xRC"
*VERSION "v2023.2_27.15"
*DESIGN_FLOW "extraction"
*DIVIDER /
*DELIMITER :
*BUS_DELIMITER []
*T_UNIT 1 NS
*C_UNIT 1 PF
*R_UNIT 1 OHM
*L_UNIT 1 HENRY



// CIRCUIT TEMPERATURE 30C
// NOMINAL TEMPERATURE 30C

*PORTS 
 X5_Y1 B
 VDD B
 X4_Y1 B
 X3_Y1 B
 X2_Y1 B
 X1_Y1 B
 S5 B
 S4 B
 S3 B
 S2 B
 S1 B
 GND B

*D_NET GND 0.0668983
*CONN
*P GND B 
*I x1/x1/MN16:g I 
*I x1/x1/MN12:g I 
*I x2/x1/MN16:g I 
*I x2/x1/MN12:g I 
*I x3/x1/MN16:g I 
*I x3/x1/MN12:g I 
*I x4/x1/MN16:g I 
*I x4/x1/MN12:g I 
*I x5/x1/MN16:g I 
*I x5/x1/MN12:g I 
*I x1/x1/MP16:g I 
*I x1/x1/MP11:g I 
*I x2/x1/MP16:g I 
*I x2/x1/MP11:g I 
*I x3/x1/MP16:g I 
*I x3/x1/MP11:g I 
*I x4/x1/MP16:g I 
*I x4/x1/MP11:g I 
*I x5/x1/MP16:g I 
*I x5/x1/MP11:g I 
*I x1/x8/MN2:s B 
*I x1/x8/MN0:s B 
*I x1/x1/MN2:s B 
*I x1/x1/MN17:s B 
*I x1/x1/MN16:s B 
*I x1/x1/MN0:s B 
*I x1/x1/MN4:s B 
*I x1/x1/MN12:s B 
*I x1/x1/MN8:s B 
*I x1/x1/MN10:s B 
*I x1/x1/MN14:s B 
*I x1/x1/MN6:s B 
*I x1/x1/MN5:s B 
*I x1/x3/MN2:s B 
*I x1/x2/MN2:s B 
*I x1/x4/MN0:s B 
*I x1/x6/MN0:s B 
*I x1/x5/MN0:s B 
*I x1/x7/MN0:s B 
*I x2/x8/MN2:s B 
*I x2/x8/MN0:s B 
*I x2/x1/MN2:s B 
*I x2/x1/MN17:s B 
*I x2/x1/MN16:s B 
*I x2/x1/MN0:s B 
*I x2/x1/MN4:s B 
*I x2/x1/MN12:s B 
*I x2/x1/MN8:s B 
*I x2/x1/MN10:s B 
*I x2/x1/MN14:s B 
*I x2/x1/MN6:s B 
*I x2/x1/MN5:s B 
*I x2/x3/MN2:s B 
*I x2/x2/MN2:s B 
*I x2/x4/MN0:s B 
*I x2/x6/MN0:s B 
*I x2/x5/MN0:s B 
*I x2/x7/MN0:s B 
*I x3/x8/MN2:s B 
*I x3/x8/MN0:s B 
*I x3/x1/MN2:s B 
*I x3/x1/MN17:s B 
*I x3/x1/MN16:s B 
*I x3/x1/MN0:s B 
*I x3/x1/MN4:s B 
*I x3/x1/MN12:s B 
*I x3/x1/MN8:s B 
*I x3/x1/MN10:s B 
*I x3/x1/MN14:s B 
*I x3/x1/MN6:s B 
*I x3/x1/MN5:s B 
*I x3/x3/MN2:s B 
*I x3/x2/MN2:s B 
*I x3/x4/MN0:s B 
*I x3/x6/MN0:s B 
*I x3/x5/MN0:s B 
*I x3/x7/MN0:s B 
*I x4/x8/MN2:s B 
*I x4/x8/MN0:s B 
*I x4/x1/MN2:s B 
*I x4/x1/MN17:s B 
*I x4/x1/MN16:s B 
*I x4/x1/MN0:s B 
*I x4/x1/MN4:s B 
*I x4/x1/MN12:s B 
*I x4/x1/MN8:s B 
*I x4/x1/MN10:s B 
*I x4/x1/MN14:s B 
*I x4/x1/MN6:s B 
*I x4/x1/MN5:s B 
*I x4/x3/MN2:s B 
*I x4/x2/MN2:s B 
*I x4/x4/MN0:s B 
*I x4/x6/MN0:s B 
*I x4/x5/MN0:s B 
*I x4/x7/MN0:s B 
*I x5/x8/MN2:s B 
*I x5/x8/MN0:s B 
*I x5/x1/MN2:s B 
*I x5/x1/MN17:s B 
*I x5/x1/MN16:s B 
*I x5/x1/MN0:s B 
*I x5/x1/MN4:s B 
*I x5/x1/MN12:s B 
*I x5/x1/MN8:s B 
*I x5/x1/MN10:s B 
*I x5/x1/MN14:s B 
*I x5/x1/MN6:s B 
*I x5/x1/MN5:s B 
*I x5/x3/MN2:s B 
*I x5/x2/MN2:s B 
*I x5/x4/MN0:s B 
*I x5/x6/MN0:s B 
*I x5/x5/MN0:s B 
*I x5/x7/MN0:s B 
*I x1/x8/MP1:s B 
*I x2/x8/MP1:s B 
*I x3/x8/MP1:s B 
*I x4/x8/MP1:s B 
*I x5/x8/MP1:s B 

*CAP
0 GND:27 X1/NET1:14 0.000378206 // $x=9.645 $y=0.975 $x2=13.78 $y2=2.11
1 GND:61 X1/NET1:14 3.81157e-05 // $x=20.05 $y=0.152 $x2=13.78 $y2=2.11
2 GND:62 X1/NET1:14 0.000150795 // $x=10.81 $y=0.152 $x2=13.78 $y2=2.11
3 x1/x1/MN0:s X1/NET1:14 4.14879e-06 // $x=5.965 $y=1.975 $x2=13.78 $y2=2.11
4 x1/x1/MN5:s X1/NET1:14 6.96496e-06 // $x=10.205 $y=1.945 $x2=13.78 $y2=2.11
5 x1/x3/MN2:s X1/NET1:14 1.11049e-06 // $x=11.845 $y=0.575 $x2=13.78 $y2=2.11
6 GND:55 X1/NET1:58 4.83331e-06 // $x=18.03 $y=8.727 $x2=12.975 $y2=7.855
7 GND:554 X1/NET1:58 1.21387e-05 // $x=14.63 $y=8.727 $x2=12.975 $y2=7.855
8 GND:568 X1/NET1:58 1.28014e-06 // $x=15.62 $y=8.727 $x2=12.975 $y2=7.855
9 x1/x2/MN2:s X1/NET1:58 1.39509e-06 // $x=11.845 $y=7.755 $x2=12.975 $y2=7.855
10 GND:61 x1/x3/MN1:s 2.18283e-06 // $x=20.05 $y=0.152 $x2=13.64 $y2=0.575
11 GND:550 x1/x3/MN1:s 1.1298e-05 // $x=14.63 $y=0.152 $x2=13.64 $y2=0.575
12 GND:566 x1/x3/MN1:s 1.33082e-06 // $x=15.62 $y=0.152 $x2=13.64 $y2=0.575
13 x1/x4/MN0:s x1/x3/MN1:s 8.67204e-06 // $x=14.59 $y=0.575 $x2=13.64 $y2=0.575
14 GND:25 X1/NET7:1 5.80533e-06 // $x=6.11 $y=6.64 $x2=0 $y2=0
15 GND:51 X1/NET7:1 1.46865e-06 // $x=7.39 $y=6.64 $x2=0 $y2=0
16 GND:308 X1/NET7:1 8.64255e-06 // $x=5.25 $y=5.96 $x2=0 $y2=0
17 GND:312 X1/NET7:1 8.79021e-06 // $x=6.27 $y=6.64 $x2=0 $y2=0
18 GND:494 X1/NET7:1 2.26178e-07 // $x=5.32 $y=5.99 $x2=0 $y2=0
19 x1/x1/MP16:g X1/NET7:1 3.00764e-06 // $x=5.41 $y=5.085 $x2=0 $y2=0
20 GND:20 X1/NET7:2 4.41668e-06 // $x=4.705 $y=7.895 $x2=0 $y2=0
21 x1/x1/MP11:g X1/NET7:7 8.16203e-06 // $x=7.45 $y=5.165 $x2=0 $y2=0
22 GND:27 X1/NET7:10 1.04277e-06 // $x=9.645 $y=0.975 $x2=12.975 $y2=6.4
23 x1/x1/MP11:g X1/NET7:18 2.26183e-06 // $x=7.45 $y=5.165 $x2=0 $y2=0
24 x1/x1/MP11:g X1/NET7:19 9.45797e-07 // $x=7.45 $y=5.165 $x2=0 $y2=0
25 GND:24 X1/NET7:25 6.00515e-06 // $x=5.25 $y=6.57 $x2=12.975 $y2=6.045
26 x1/x1/MP11:g x1/x1/MP7:g 2.60287e-06 // $x=7.45 $y=5.165 $x2=12.977 $y2=5.782
27 GND:27 X1/NET7:52 3.70282e-06 // $x=9.645 $y=0.975 $x2=0 $y2=0
28 GND:506 X1/NET7:52 4.84168e-06 // $x=8.475 $y=0.897 $x2=0 $y2=0
29 GND:20 x1/x1/MN17:d 2.31669e-05 // $x=4.705 $y=7.895 $x2=12.92 $y2=5.585
30 GND:26 x1/x1/MN17:d 1.69959e-06 // $x=5.32 $y=6.64 $x2=12.92 $y2=5.585
31 GND:497 x1/x1/MN17:d 5.40087e-05 // $x=5.245 $y=7.972 $x2=12.92 $y2=5.585
32 x1/x1/MN17:s x1/x1/MN17:d 2.68291e-05 // $x=4.945 $y=6.265 $x2=12.92 $y2=5.585
33 GND:62 X1/NET8:21 1.14049e-06 // $x=10.81 $y=0.152 $x2=0 $y2=0
34 GND:27 X1/NET8:31 1.45892e-05 // $x=9.645 $y=0.975 $x2=0 $y2=0
35 GND:62 X1/NET8:31 4.2569e-06 // $x=10.81 $y=0.152 $x2=0 $y2=0
36 GND:62 x1/x1/MN6:d 1.01006e-05 // $x=10.81 $y=0.152 $x2=0 $y2=0
37 GND:1097 x1/x1/MN6:d 3.23709e-05 // $x=10.81 $y=0.897 $x2=0 $y2=0
38 x1/x1/MN6:s x1/x1/MN6:d 4.98857e-05 // $x=9.375 $y=1.945 $x2=0 $y2=0
39 x1/x1/MN5:s x1/x1/MN6:d 4.95709e-05 // $x=10.205 $y=1.945 $x2=0 $y2=0
40 GND:28 X1/NET9:1 5.05663e-05 // $x=5.67 $y=0.975 $x2=0 $y2=0
41 GND:480 X1/NET9:1 6.37335e-07 // $x=6.095 $y=0.897 $x2=0 $y2=0
42 x1/x1/MN2:s X1/NET9:1 2.74554e-07 // $x=3.855 $y=2.175 $x2=0 $y2=0
43 GND:28 X1/NET9:2 9.84705e-06 // $x=5.67 $y=0.975 $x2=0 $y2=0
44 x1/x1/MN2:s X1/NET9:2 3.06011e-06 // $x=3.855 $y=2.175 $x2=0 $y2=0
45 GND:27 X1/NET9:6 1.21241e-05 // $x=9.645 $y=0.975 $x2=0 $y2=0
46 GND:1097 X1/NET9:6 3.43174e-07 // $x=10.81 $y=0.897 $x2=0 $y2=0
47 x1/x1/MN8:s X1/NET9:6 2.76216e-06 // $x=8.205 $y=1.945 $x2=0 $y2=0
48 GND:27 X1/NET9:13 8.80494e-06 // $x=9.645 $y=0.975 $x2=13.78 $y2=2.14
49 x1/x1/MN8:s X1/NET9:13 2.03379e-06 // $x=8.205 $y=1.945 $x2=13.78 $y2=2.14
50 GND:27 X1/NET9:16 3.61898e-05 // $x=9.645 $y=0.975 $x2=13.81 $y2=2.14
51 GND:1097 X1/NET9:16 1.18268e-06 // $x=10.81 $y=0.897 $x2=13.81 $y2=2.14
52 x1/x1/MN8:s X1/NET9:16 2.49373e-06 // $x=8.205 $y=1.945 $x2=13.81 $y2=2.14
53 GND:28 X1/NET9:27 2.3781e-06 // $x=5.67 $y=0.975 $x2=13.69 $y2=5.782
54 GND:480 X1/NET9:27 3.92222e-07 // $x=6.095 $y=0.897 $x2=13.69 $y2=5.782
55 x1/x1/MN2:s X1/NET9:27 2.58197e-05 // $x=3.855 $y=2.175 $x2=13.69 $y2=5.782
56 GND:27 X1/NET9:42 5.24367e-06 // $x=9.645 $y=0.975 $x2=13.02 $y2=6.28
57 GND:1097 X1/NET9:42 2.40924e-06 // $x=10.81 $y=0.897 $x2=13.02 $y2=6.28
58 x1/x1/MN6:s X1/NET9:42 2.04719e-05 // $x=9.375 $y=1.945 $x2=13.02 $y2=6.28
59 x1/x1/MN2:s X1/NET9:55 3.26826e-06 // $x=3.855 $y=2.175 $x2=0 $y2=0
60 GND:27 X1/NET9:61 2.0437e-06 // $x=9.645 $y=0.975 $x2=13.78 $y2=0.755
61 GND:62 X1/NET9:61 5.89587e-06 // $x=10.81 $y=0.152 $x2=13.78 $y2=0.755
62 GND:1097 X1/NET9:61 6.72104e-06 // $x=10.81 $y=0.897 $x2=13.78 $y2=0.755
63 x1/x1/MN6:s X1/NET9:61 1.33952e-05 // $x=9.375 $y=1.945 $x2=13.78 $y2=0.755
64 GND:28 X1/NET9:67 6.55193e-07 // $x=5.67 $y=0.975 $x2=0 $y2=0
65 x1/x1/MN2:s X1/NET9:67 8.67027e-06 // $x=3.855 $y=2.175 $x2=0 $y2=0
66 GND:28 X1/NET9:68 6.7388e-06 // $x=5.67 $y=0.975 $x2=0 $y2=0
67 GND:480 X1/NET9:68 7.44696e-06 // $x=6.095 $y=0.897 $x2=0 $y2=0
68 x1/x1/MN2:s X1/NET9:68 1.52379e-05 // $x=3.855 $y=2.175 $x2=0 $y2=0
69 GND:27 X1/NET9:73 8.38967e-07 // $x=9.645 $y=0.975 $x2=12.795 $y2=7.755
70 x1/x1/MN6:s X1/NET9:73 1.03408e-05 // $x=9.375 $y=1.945 $x2=12.795 $y2=7.755
71 GND:27 x1/x1/MN10:d 6.17082e-06 // $x=9.645 $y=0.975 $x2=0 $y2=0
72 GND:1097 x1/x1/MN10:d 3.31052e-05 // $x=10.81 $y=0.897 $x2=0 $y2=0
73 x1/x1/MN8:s x1/x1/MN10:d 3.01382e-05 // $x=8.205 $y=1.945 $x2=0 $y2=0
74 x1/x1/MN6:s x1/x1/MN10:d 4.13156e-05 // $x=9.375 $y=1.945 $x2=0 $y2=0
75 GND:10 X1/NET4:2 2.10081e-05 // $x=1.53 $y=8.575 $x2=0 $y2=0
76 GND:20 X1/NET4:2 4.75353e-06 // $x=4.705 $y=7.895 $x2=0 $y2=0
77 GND:475 X1/NET4:2 6.31462e-06 // $x=1.75 $y=6.4 $x2=0 $y2=0
78 GND:28 X1/NET4:6 4.37983e-07 // $x=5.67 $y=0.975 $x2=0 $y2=0
79 GND:506 X1/NET4:7 3.92999e-06 // $x=8.475 $y=0.897 $x2=0 $y2=0
80 GND:1090 X1/NET4:7 9.62391e-07 // $x=6.25 $y=1.71 $x2=0 $y2=0
81 x1/x1/MN0:s X1/NET4:7 1.52275e-05 // $x=5.965 $y=1.975 $x2=0 $y2=0
82 GND:27 X1/NET4:8 0.000195471 // $x=9.645 $y=0.975 $x2=0 $y2=0
83 GND:51 X1/NET4:9 1.54316e-05 // $x=7.39 $y=6.64 $x2=12.975 $y2=6.442
84 GND:312 X1/NET4:9 1.18449e-06 // $x=6.27 $y=6.64 $x2=12.975 $y2=6.442
85 GND:308 X1/NET4:10 9.11272e-06 // $x=5.25 $y=5.96 $x2=12.975 $y2=6.4
86 GND:312 X1/NET4:10 2.89422e-05 // $x=6.27 $y=6.64 $x2=12.975 $y2=6.4
87 GND:494 X1/NET4:10 2.70629e-07 // $x=5.32 $y=5.99 $x2=12.975 $y2=6.4
88 GND:41 X1/NET4:13 1.13851e-05 // $x=9.635 $y=7.895 $x2=13.78 $y2=2.14
89 GND:51 X1/NET4:13 6.45906e-06 // $x=7.39 $y=6.64 $x2=13.78 $y2=2.14
90 GND:316 X1/NET4:13 3.4332e-05 // $x=7.46 $y=5.96 $x2=13.78 $y2=2.14
91 GND:517 X1/NET4:13 6.20383e-06 // $x=7.46 $y=5.96 $x2=13.78 $y2=2.14
92 x1/x1/MP11:g X1/NET4:13 1.41918e-06 // $x=7.45 $y=5.165 $x2=13.78 $y2=2.14
93 GND:1348 X1/NET4:13 6.68738e-07 // $x=7.45 $y=5.99 $x2=13.78 $y2=2.14
94 GND:41 X1/NET4:16 6.94334e-06 // $x=9.635 $y=7.895 $x2=13.81 $y2=2.14
95 GND:54 X1/NET4:16 1.48437e-06 // $x=7.46 $y=6.57 $x2=13.81 $y2=2.14
96 GND:316 X1/NET4:16 2.75916e-05 // $x=7.46 $y=5.96 $x2=13.81 $y2=2.14
97 GND:517 X1/NET4:16 4.85715e-06 // $x=7.46 $y=5.96 $x2=13.81 $y2=2.14
98 GND:10 X1/NET4:25 2.4947e-05 // $x=1.53 $y=8.575 $x2=12.975 $y2=6.045
99 GND:15 X1/NET4:25 5.77359e-07 // $x=3.425 $y=8.727 $x2=12.975 $y2=6.045
100 GND:20 X1/NET4:25 2.56681e-06 // $x=4.705 $y=7.895 $x2=12.975 $y2=6.045
101 GND:462 X1/NET4:25 5.60271e-07 // $x=3.425 $y=8.727 $x2=12.975 $y2=6.045
102 GND:475 X1/NET4:25 4.1889e-06 // $x=1.75 $y=6.4 $x2=12.975 $y2=6.045
103 GND:10 X1/NET4:30 1.74617e-05 // $x=1.53 $y=8.575 $x2=13.777 $y2=5.695
104 GND:15 X1/NET4:30 1.35661e-05 // $x=3.425 $y=8.727 $x2=13.777 $y2=5.695
105 GND:20 X1/NET4:30 1.22654e-06 // $x=4.705 $y=7.895 $x2=13.777 $y2=5.695
106 GND:462 X1/NET4:30 3.26999e-06 // $x=3.425 $y=8.727 $x2=13.777 $y2=5.695
107 GND:475 X1/NET4:30 2.73941e-06 // $x=1.75 $y=6.4 $x2=13.777 $y2=5.695
108 GND:27 X1/NET4:36 3.69738e-06 // $x=9.645 $y=0.975 $x2=0 $y2=0
109 GND:51 X1/NET4:42 1.68921e-05 // $x=7.39 $y=6.64 $x2=13.02 $y2=6.28
110 GND:54 X1/NET4:42 1.63688e-06 // $x=7.46 $y=6.57 $x2=13.02 $y2=6.28
111 GND:316 X1/NET4:42 2.82145e-05 // $x=7.46 $y=5.96 $x2=13.02 $y2=6.28
112 GND:517 X1/NET4:42 1.59306e-06 // $x=7.46 $y=5.96 $x2=13.02 $y2=6.28
113 GND:27 X1/NET4:47 5.22009e-05 // $x=9.645 $y=0.975 $x2=13.81 $y2=2.14
114 GND:506 X1/NET4:47 1.16991e-06 // $x=8.475 $y=0.897 $x2=13.81 $y2=2.14
115 GND:1097 X1/NET4:47 1.2538e-06 // $x=10.81 $y=0.897 $x2=13.81 $y2=2.14
116 x1/x1/MN8:s X1/NET4:47 3.7818e-06 // $x=8.205 $y=1.945 $x2=13.81 $y2=2.14
117 GND:41 X1/NET4:54 8.57298e-06 // $x=9.635 $y=7.895 $x2=12.92 $y2=5.585
118 GND:41 X1/NET4:57 1.34492e-05 // $x=9.635 $y=7.895 $x2=12.975 $y2=6.245
119 GND:539 X1/NET4:57 3.38567e-07 // $x=10.625 $y=8.727 $x2=12.975 $y2=6.245
120 x1/x1/MN14:s X1/NET4:57 3.13366e-06 // $x=9.305 $y=6.265 $x2=12.975 $y2=6.245
121 GND:10 X1/NET4:60 1.06413e-05 // $x=1.53 $y=8.575 $x2=12.975 $y2=6.4
122 GND:15 X1/NET4:60 4.9394e-06 // $x=3.425 $y=8.727 $x2=12.975 $y2=6.4
123 GND:41 X1/NET4:72 1.51507e-05 // $x=9.635 $y=7.895 $x2=0 $y2=0
124 GND:41 X1/NET4:73 2.62959e-06 // $x=9.635 $y=7.895 $x2=12.795 $y2=7.755
125 GND:24 X1/NET4:75 2.49566e-06 // $x=5.25 $y=6.57 $x2=0 $y2=0
126 GND:51 X1/NET4:75 4.3228e-06 // $x=7.39 $y=6.64 $x2=0 $y2=0
127 GND:54 X1/NET4:75 2.30083e-06 // $x=7.46 $y=6.57 $x2=0 $y2=0
128 GND:308 X1/NET4:75 2.59287e-06 // $x=5.25 $y=5.96 $x2=0 $y2=0
129 GND:41 X1/NET4:79 8.56324e-06 // $x=9.635 $y=7.895 $x2=0 $y2=0
130 GND:54 X1/NET4:79 2.46965e-06 // $x=7.46 $y=6.57 $x2=0 $y2=0
131 GND:517 X1/NET4:79 5.36119e-07 // $x=7.46 $y=5.96 $x2=0 $y2=0
132 x1/x1/MP11:g X1/NET4:79 2.12242e-07 // $x=7.45 $y=5.165 $x2=0 $y2=0
133 x1/x1/MP11:g X1/NET4:80 1.723e-06 // $x=7.45 $y=5.165 $x2=0 $y2=0
134 GND:27 X1/NET4:84 3.56086e-06 // $x=9.645 $y=0.975 $x2=0 $y2=0
135 x1/x1/MN8:s X1/NET4:84 5.33444e-07 // $x=8.205 $y=1.945 $x2=0 $y2=0
136 GND:41 X1/NET4:92 7.70363e-06 // $x=9.635 $y=7.895 $x2=0 $y2=0
137 x1/x1/MN14:s X1/NET4:92 1.79675e-06 // $x=9.305 $y=6.265 $x2=0 $y2=0
138 GND:15 X1/NET4:94 4.97885e-06 // $x=3.425 $y=8.727 $x2=0 $y2=0
139 GND:19 X1/NET4:98 3.01738e-05 // $x=6.145 $y=7.895 $x2=0 $y2=0
140 GND:20 X1/NET4:98 2.83144e-05 // $x=4.705 $y=7.895 $x2=0 $y2=0
141 GND:41 X1/NET4:98 1.91778e-05 // $x=9.635 $y=7.895 $x2=0 $y2=0
142 GND:312 X1/NET4:98 3.49552e-05 // $x=6.27 $y=6.64 $x2=0 $y2=0
143 GND:314 X1/NET4:98 5.02373e-06 // $x=6.272 $y=7.895 $x2=0 $y2=0
144 GND:24 X1/NET4:105 7.01677e-06 // $x=5.25 $y=6.57 $x2=0 $y2=0
145 GND:40 X1/NET4:105 2.41989e-06 // $x=6.272 $y=6.91 $x2=0 $y2=0
146 GND:41 X1/NET4:105 9.68072e-05 // $x=9.635 $y=7.895 $x2=0 $y2=0
147 GND:51 X1/NET4:105 8.35002e-06 // $x=7.39 $y=6.64 $x2=0 $y2=0
148 GND:54 X1/NET4:105 1.30391e-05 // $x=7.46 $y=6.57 $x2=0 $y2=0
149 GND:312 X1/NET4:105 6.77006e-05 // $x=6.27 $y=6.64 $x2=0 $y2=0
150 x1/x1/MN12:s X1/NET4:105 2.36822e-06 // $x=7.075 $y=6.265 $x2=0 $y2=0
151 GND:41 X1/NET4:106 1.77709e-05 // $x=9.635 $y=7.895 $x2=0 $y2=0
152 GND:51 X1/NET4:106 5.94553e-06 // $x=7.39 $y=6.64 $x2=0 $y2=0
153 GND:54 X1/NET4:106 4.13802e-06 // $x=7.46 $y=6.57 $x2=0 $y2=0
154 GND:316 X1/NET4:106 1.75627e-06 // $x=7.46 $y=5.96 $x2=0 $y2=0
155 GND:517 X1/NET4:106 2.34919e-06 // $x=7.46 $y=5.96 $x2=0 $y2=0
156 x1/x1/MP11:g X1/NET4:106 3.3857e-07 // $x=7.45 $y=5.165 $x2=0 $y2=0
157 GND:1348 X1/NET4:106 8.47235e-07 // $x=7.45 $y=5.99 $x2=0 $y2=0
158 GND:24 X1/NET4:116 1.31394e-06 // $x=5.25 $y=6.57 $x2=0 $y2=0
159 GND:51 X1/NET4:116 7.23994e-06 // $x=7.39 $y=6.64 $x2=0 $y2=0
160 GND:54 X1/NET4:116 3.68142e-07 // $x=7.46 $y=6.57 $x2=0 $y2=0
161 GND:312 X1/NET4:116 4.0135e-05 // $x=6.27 $y=6.64 $x2=0 $y2=0
162 GND:10 X1/NET4:128 7.43546e-07 // $x=1.53 $y=8.575 $x2=0 $y2=0
163 GND:15 X1/NET4:128 2.15467e-06 // $x=3.425 $y=8.727 $x2=0 $y2=0
164 GND:462 X1/NET4:128 1.39846e-05 // $x=3.425 $y=8.727 $x2=0 $y2=0
165 GND:473 X1/NET4:128 1.62563e-05 // $x=1.75 $y=7.855 $x2=0 $y2=0
166 GND:475 X1/NET4:128 1.74627e-05 // $x=1.75 $y=6.4 $x2=0 $y2=0
167 GND:25 X1/NET4:141 1.83426e-06 // $x=6.11 $y=6.64 $x2=0 $y2=0
168 GND:494 X1/NET4:141 2.38551e-05 // $x=5.32 $y=5.99 $x2=0 $y2=0
169 GND:496 X1/NET4:141 1.89291e-06 // $x=7.065 $y=7.972 $x2=0 $y2=0
170 GND:1344 X1/NET4:141 4.24929e-06 // $x=5.32 $y=5.99 $x2=0 $y2=0
171 GND:27 X1/NET4:156 4.60246e-06 // $x=9.645 $y=0.975 $x2=0 $y2=0
172 GND:506 X1/NET4:156 2.28057e-05 // $x=8.475 $y=0.897 $x2=0 $y2=0
173 x1/x1/MN8:s X1/NET4:156 2.31827e-05 // $x=8.205 $y=1.945 $x2=0 $y2=0
174 GND:41 X1/NET4:164 1.63145e-06 // $x=9.635 $y=7.895 $x2=0 $y2=0
175 GND:539 X1/NET4:164 3.19401e-07 // $x=10.625 $y=8.727 $x2=0 $y2=0
176 x1/x1/MN14:s X1/NET4:164 4.17283e-05 // $x=9.305 $y=6.265 $x2=0 $y2=0
177 GND:27 X1/NET4:167 7.2327e-06 // $x=9.645 $y=0.975 $x2=0 $y2=0
178 GND:480 X1/NET4:167 2.018e-05 // $x=6.095 $y=0.897 $x2=0 $y2=0
179 x1/x1/MN0:s X1/NET4:167 1.74045e-05 // $x=5.965 $y=1.975 $x2=0 $y2=0
180 GND:308 X1/NET4:173 2.70629e-07 // $x=5.25 $y=5.96 $x2=0 $y2=0
181 GND:312 X1/NET4:173 2.30887e-06 // $x=6.27 $y=6.64 $x2=0 $y2=0
182 GND:494 X1/NET4:173 3.22645e-07 // $x=5.32 $y=5.99 $x2=0 $y2=0
183 GND:496 X1/NET4:173 2.60719e-07 // $x=7.065 $y=7.972 $x2=0 $y2=0
184 x1/x1/MP11:g X1/NET4:173 1.70899e-06 // $x=7.45 $y=5.165 $x2=0 $y2=0
185 GND:41 X1/NET4:178 2.3418e-07 // $x=9.635 $y=7.895 $x2=0 $y2=0
186 GND:54 X1/NET4:178 6.29845e-06 // $x=7.46 $y=6.57 $x2=0 $y2=0
187 GND:316 X1/NET4:178 1.34719e-06 // $x=7.46 $y=5.96 $x2=0 $y2=0
188 GND:517 X1/NET4:178 2.69729e-05 // $x=7.46 $y=5.96 $x2=0 $y2=0
189 GND:1348 X1/NET4:178 1.71122e-06 // $x=7.45 $y=5.99 $x2=0 $y2=0
190 GND:506 X1/NET4:182 2.11938e-06 // $x=8.475 $y=0.897 $x2=0 $y2=0
191 x1/x1/MN6:s X1/NET4:182 4.3989e-07 // $x=9.375 $y=1.945 $x2=0 $y2=0
192 GND:41 X1/NET4:190 1.80321e-06 // $x=9.635 $y=7.895 $x2=0 $y2=0
193 GND:539 X1/NET4:190 3.65399e-07 // $x=10.625 $y=8.727 $x2=0 $y2=0
194 GND:28 x1/x1/MN1:g 4.07528e-06 // $x=5.67 $y=0.975 $x2=0 $y2=0
195 GND:480 x1/x1/MN1:g 5.105e-06 // $x=6.095 $y=0.897 $x2=0 $y2=0
196 GND:19 x1/x1/MN15:g 5.48865e-06 // $x=6.145 $y=7.895 $x2=0 $y2=0
197 GND:25 x1/x1/MN15:g 3.70843e-06 // $x=6.11 $y=6.64 $x2=0 $y2=0
198 GND:40 x1/x1/MN15:g 2.48193e-06 // $x=6.272 $y=6.91 $x2=0 $y2=0
199 GND:312 x1/x1/MN15:g 8.8546e-07 // $x=6.27 $y=6.64 $x2=0 $y2=0
200 GND:496 x1/x1/MN15:g 7.05816e-06 // $x=7.065 $y=7.972 $x2=0 $y2=0
201 x1/x1/MN16:g x1/x1/MN15:g 4.14789e-05 // $x=5.41 $y=6.565 $x2=0 $y2=0
202 x1/x1/MN12:s x1/x1/MN15:g 1.4467e-06 // $x=7.075 $y=6.265 $x2=0 $y2=0
203 GND:27 x1/x1/MN0:g 3.06294e-06 // $x=9.645 $y=0.975 $x2=0 $y2=0
204 GND:480 x1/x1/MN0:g 5.02478e-06 // $x=6.095 $y=0.897 $x2=0 $y2=0
205 x1/x1/MN0:s x1/x1/MN0:g 7.01299e-06 // $x=5.965 $y=1.975 $x2=0 $y2=0
206 GND:27 x1/x1/MN9:g 2.55865e-06 // $x=9.645 $y=0.975 $x2=0 $y2=0
207 GND:506 x1/x1/MN9:g 4.84168e-06 // $x=8.475 $y=0.897 $x2=0 $y2=0
208 x1/x1/MP16:g x1/x1/MP15:g 4.14789e-05 // $x=5.41 $y=5.085 $x2=0 $y2=0
209 x1/x1/MP11:g x1/x1/MP14:g 7.61334e-05 // $x=7.45 $y=5.165 $x2=0 $y2=0
210 x1/x1/MP11:g x1/x1/MP12:g 2.23824e-06 // $x=7.45 $y=5.165 $x2=0 $y2=0
211 GND:27 X1/NET4:237 3.87532e-06 // $x=9.645 $y=0.975 $x2=0 $y2=0
212 GND:506 X1/NET4:237 5.28127e-06 // $x=8.475 $y=0.897 $x2=0 $y2=0
213 x1/x1/MN8:s X1/NET4:237 3.65258e-06 // $x=8.205 $y=1.945 $x2=0 $y2=0
214 GND:506 X1/NET4:239 1.60769e-06 // $x=8.475 $y=0.897 $x2=0 $y2=0
215 GND:28 X1/NET4:253 8.53314e-07 // $x=5.67 $y=0.975 $x2=0 $y2=0
216 GND:480 X1/NET4:253 7.00224e-07 // $x=6.095 $y=0.897 $x2=0 $y2=0
217 x1/x1/MP16:g X1/NET4:255 3.04618e-06 // $x=5.41 $y=5.085 $x2=0 $y2=0
218 GND:24 X1/NET4:261 6.51583e-07 // $x=5.25 $y=6.57 $x2=0 $y2=0
219 GND:494 X1/NET4:261 1.07159e-06 // $x=5.32 $y=5.99 $x2=0 $y2=0
220 GND:1344 X1/NET4:261 4.53036e-05 // $x=5.32 $y=5.99 $x2=0 $y2=0
221 GND:1348 X1/NET4:261 3.84657e-06 // $x=7.45 $y=5.99 $x2=0 $y2=0
222 GND:480 X1/NET4:264 8.91887e-07 // $x=6.095 $y=0.897 $x2=0 $y2=0
223 GND:506 X1/NET4:268 2.41879e-07 // $x=8.475 $y=0.897 $x2=0 $y2=0
224 GND:517 X1/NET4:274 1.11137e-05 // $x=7.46 $y=5.96 $x2=0 $y2=0
225 GND:1348 X1/NET4:274 5.70518e-05 // $x=7.45 $y=5.99 $x2=0 $y2=0
226 GND:41 X1/NET4:276 4.57469e-06 // $x=9.635 $y=7.895 $x2=0 $y2=0
227 GND:539 X1/NET4:276 4.84368e-06 // $x=10.625 $y=8.727 $x2=0 $y2=0
228 GND:1349 X1/NET4:276 5.02342e-05 // $x=7.45 $y=6.155 $x2=0 $y2=0
229 GND:41 X1/NET4:282 4.32826e-06 // $x=9.635 $y=7.895 $x2=0 $y2=0
230 GND:539 X1/NET4:282 5.40189e-06 // $x=10.625 $y=8.727 $x2=0 $y2=0
231 GND:1349 X1/NET4:282 1.08017e-06 // $x=7.45 $y=6.155 $x2=0 $y2=0
232 x1/x1/MN14:s X1/NET4:282 6.14848e-06 // $x=9.305 $y=6.265 $x2=0 $y2=0
233 x1/x1/MN14:s X1/NET4:284 2.59929e-06 // $x=9.305 $y=6.265 $x2=0 $y2=0
234 x1/x1/MN14:s X1/NET4:286 2.97796e-05 // $x=9.305 $y=6.265 $x2=0 $y2=0
235 GND:10 x1/x8/MP1:d 7.43546e-07 // $x=1.53 $y=8.575 $x2=0 $y2=0
236 GND:13 x1/x8/MP1:d 7.27515e-06 // $x=1.75 $y=6.4 $x2=0 $y2=0
237 GND:475 x1/x8/MP1:d 4.47144e-06 // $x=1.75 $y=6.4 $x2=0 $y2=0
238 GND:1080 x1/x8/MP1:d 6.68548e-05 // $x=1.722 $y=6.245 $x2=0 $y2=0
239 x1/x8/MP1:s x1/x8/MP1:d 5.01459e-05 // $x=1.57 $y=5.015 $x2=0 $y2=0
240 GND:85 X2/NET1:14 0.000378206 // $x=26.23 $y=0.975 $x2=13.78 $y2=2.11
241 GND:119 X2/NET1:14 3.81157e-05 // $x=36.635 $y=0.152 $x2=13.78 $y2=2.11
242 GND:120 X2/NET1:14 0.000150795 // $x=27.395 $y=0.152 $x2=13.78 $y2=2.11
243 x2/x1/MN0:s X2/NET1:14 4.14879e-06 // $x=22.55 $y=1.975 $x2=13.78 $y2=2.11
244 x2/x1/MN5:s X2/NET1:14 6.96496e-06 // $x=26.79 $y=1.945 $x2=13.78 $y2=2.11
245 x2/x3/MN2:s X2/NET1:14 1.11049e-06 // $x=28.43 $y=0.575 $x2=13.78 $y2=2.11
246 GND:113 X2/NET1:58 4.83331e-06 // $x=34.615 $y=8.727 $x2=12.975 $y2=7.855
247 GND:678 X2/NET1:58 1.21387e-05 // $x=31.215 $y=8.727 $x2=12.975 $y2=7.855
248 GND:692 X2/NET1:58 1.28014e-06 // $x=32.205 $y=8.727 $x2=12.975 $y2=7.855
249 x2/x2/MN2:s X2/NET1:58 1.39509e-06 // $x=28.43 $y=7.755 $x2=12.975 $y2=7.855
250 GND:119 x2/x3/MN1:s 2.18283e-06 // $x=36.635 $y=0.152 $x2=13.64 $y2=0.575
251 GND:674 x2/x3/MN1:s 1.1298e-05 // $x=31.215 $y=0.152 $x2=13.64 $y2=0.575
252 GND:690 x2/x3/MN1:s 1.33082e-06 // $x=32.205 $y=0.152 $x2=13.64 $y2=0.575
253 x2/x4/MN0:s x2/x3/MN1:s 8.67204e-06 // $x=31.175 $y=0.575 $x2=13.64 $y2=0.575
254 GND:83 X2/NET7:1 5.80533e-06 // $x=22.695 $y=6.64 $x2=0 $y2=0
255 GND:109 X2/NET7:1 1.46865e-06 // $x=23.975 $y=6.64 $x2=0 $y2=0
256 GND:331 X2/NET7:1 8.64255e-06 // $x=21.835 $y=5.96 $x2=0 $y2=0
257 GND:335 X2/NET7:1 8.79021e-06 // $x=22.855 $y=6.64 $x2=0 $y2=0
258 GND:618 X2/NET7:1 2.26178e-07 // $x=21.905 $y=5.99 $x2=0 $y2=0
259 x2/x1/MP16:g X2/NET7:1 3.00764e-06 // $x=21.995 $y=5.085 $x2=0 $y2=0
260 GND:78 X2/NET7:2 4.41668e-06 // $x=21.29 $y=7.895 $x2=0 $y2=0
261 x2/x1/MP11:g X2/NET7:7 8.16203e-06 // $x=24.035 $y=5.165 $x2=0 $y2=0
262 GND:85 X2/NET7:10 1.04277e-06 // $x=26.23 $y=0.975 $x2=12.975 $y2=6.4
263 x2/x1/MP11:g X2/NET7:18 2.26183e-06 // $x=24.035 $y=5.165 $x2=0 $y2=0
264 x2/x1/MP11:g X2/NET7:19 9.45797e-07 // $x=24.035 $y=5.165 $x2=0 $y2=0
265 GND:82 X2/NET7:25 6.00515e-06 // $x=21.835 $y=6.57 $x2=12.975 $y2=6.045
266 x2/x1/MP11:g x2/x1/MP7:g 2.60287e-06 // $x=24.035 $y=5.165 $x2=12.977 $y2=5.782
267 GND:85 X2/NET7:52 3.70282e-06 // $x=26.23 $y=0.975 $x2=0 $y2=0
268 GND:630 X2/NET7:52 4.84168e-06 // $x=25.06 $y=0.897 $x2=0 $y2=0
269 GND:78 x2/x1/MN17:d 2.31669e-05 // $x=21.29 $y=7.895 $x2=12.92 $y2=5.585
270 GND:84 x2/x1/MN17:d 1.69959e-06 // $x=21.905 $y=6.64 $x2=12.92 $y2=5.585
271 GND:621 x2/x1/MN17:d 5.40087e-05 // $x=21.83 $y=7.972 $x2=12.92 $y2=5.585
272 x2/x1/MN17:s x2/x1/MN17:d 2.68291e-05 // $x=21.53 $y=6.265 $x2=12.92 $y2=5.585
273 GND:120 X2/NET8:21 1.14049e-06 // $x=27.395 $y=0.152 $x2=0 $y2=0
274 GND:85 X2/NET8:31 1.45892e-05 // $x=26.23 $y=0.975 $x2=0 $y2=0
275 GND:120 X2/NET8:31 4.2569e-06 // $x=27.395 $y=0.152 $x2=0 $y2=0
276 GND:120 x2/x1/MN6:d 1.01006e-05 // $x=27.395 $y=0.152 $x2=0 $y2=0
277 GND:1135 x2/x1/MN6:d 3.23709e-05 // $x=27.395 $y=0.897 $x2=0 $y2=0
278 x2/x1/MN6:s x2/x1/MN6:d 4.98857e-05 // $x=25.96 $y=1.945 $x2=0 $y2=0
279 x2/x1/MN5:s x2/x1/MN6:d 4.95709e-05 // $x=26.79 $y=1.945 $x2=0 $y2=0
280 GND:86 X2/NET9:1 5.05663e-05 // $x=22.255 $y=0.975 $x2=0 $y2=0
281 GND:604 X2/NET9:1 6.37335e-07 // $x=22.68 $y=0.897 $x2=0 $y2=0
282 x2/x1/MN2:s X2/NET9:1 2.74554e-07 // $x=20.44 $y=2.175 $x2=0 $y2=0
283 GND:86 X2/NET9:2 9.84705e-06 // $x=22.255 $y=0.975 $x2=0 $y2=0
284 x2/x1/MN2:s X2/NET9:2 3.06011e-06 // $x=20.44 $y=2.175 $x2=0 $y2=0
285 GND:85 X2/NET9:6 1.21241e-05 // $x=26.23 $y=0.975 $x2=0 $y2=0
286 GND:1135 X2/NET9:6 3.43174e-07 // $x=27.395 $y=0.897 $x2=0 $y2=0
287 x2/x1/MN8:s X2/NET9:6 2.76216e-06 // $x=24.79 $y=1.945 $x2=0 $y2=0
288 GND:85 X2/NET9:13 8.80494e-06 // $x=26.23 $y=0.975 $x2=13.78 $y2=2.14
289 x2/x1/MN8:s X2/NET9:13 2.03379e-06 // $x=24.79 $y=1.945 $x2=13.78 $y2=2.14
290 GND:85 X2/NET9:16 3.61898e-05 // $x=26.23 $y=0.975 $x2=13.81 $y2=2.14
291 GND:1135 X2/NET9:16 1.18268e-06 // $x=27.395 $y=0.897 $x2=13.81 $y2=2.14
292 x2/x1/MN8:s X2/NET9:16 2.49373e-06 // $x=24.79 $y=1.945 $x2=13.81 $y2=2.14
293 GND:86 X2/NET9:27 2.3781e-06 // $x=22.255 $y=0.975 $x2=13.69 $y2=5.782
294 GND:604 X2/NET9:27 3.92222e-07 // $x=22.68 $y=0.897 $x2=13.69 $y2=5.782
295 x2/x1/MN2:s X2/NET9:27 2.58197e-05 // $x=20.44 $y=2.175 $x2=13.69 $y2=5.782
296 GND:85 X2/NET9:42 5.24367e-06 // $x=26.23 $y=0.975 $x2=13.02 $y2=6.28
297 GND:1135 X2/NET9:42 2.40924e-06 // $x=27.395 $y=0.897 $x2=13.02 $y2=6.28
298 x2/x1/MN6:s X2/NET9:42 2.04719e-05 // $x=25.96 $y=1.945 $x2=13.02 $y2=6.28
299 x2/x1/MN2:s X2/NET9:55 3.26826e-06 // $x=20.44 $y=2.175 $x2=0 $y2=0
300 GND:85 X2/NET9:61 2.0437e-06 // $x=26.23 $y=0.975 $x2=13.78 $y2=0.755
301 GND:120 X2/NET9:61 5.89587e-06 // $x=27.395 $y=0.152 $x2=13.78 $y2=0.755
302 GND:1135 X2/NET9:61 6.72104e-06 // $x=27.395 $y=0.897 $x2=13.78 $y2=0.755
303 x2/x1/MN6:s X2/NET9:61 1.33952e-05 // $x=25.96 $y=1.945 $x2=13.78 $y2=0.755
304 GND:86 X2/NET9:67 6.55193e-07 // $x=22.255 $y=0.975 $x2=0 $y2=0
305 x2/x1/MN2:s X2/NET9:67 8.67027e-06 // $x=20.44 $y=2.175 $x2=0 $y2=0
306 GND:86 X2/NET9:68 6.7388e-06 // $x=22.255 $y=0.975 $x2=0 $y2=0
307 GND:604 X2/NET9:68 7.44696e-06 // $x=22.68 $y=0.897 $x2=0 $y2=0
308 x2/x1/MN2:s X2/NET9:68 1.52379e-05 // $x=20.44 $y=2.175 $x2=0 $y2=0
309 GND:85 X2/NET9:73 8.38967e-07 // $x=26.23 $y=0.975 $x2=12.795 $y2=7.755
310 x2/x1/MN6:s X2/NET9:73 1.03408e-05 // $x=25.96 $y=1.945 $x2=12.795 $y2=7.755
311 GND:85 x2/x1/MN10:d 6.17082e-06 // $x=26.23 $y=0.975 $x2=0 $y2=0
312 GND:1135 x2/x1/MN10:d 3.31052e-05 // $x=27.395 $y=0.897 $x2=0 $y2=0
313 x2/x1/MN8:s x2/x1/MN10:d 3.01382e-05 // $x=24.79 $y=1.945 $x2=0 $y2=0
314 x2/x1/MN6:s x2/x1/MN10:d 4.13156e-05 // $x=25.96 $y=1.945 $x2=0 $y2=0
315 GND:68 X2/NET4:2 2.10081e-05 // $x=18.115 $y=8.575 $x2=0 $y2=0
316 GND:78 X2/NET4:2 4.75353e-06 // $x=21.29 $y=7.895 $x2=0 $y2=0
317 GND:599 X2/NET4:2 6.31462e-06 // $x=18.335 $y=6.4 $x2=0 $y2=0
318 GND:86 X2/NET4:6 4.37983e-07 // $x=22.255 $y=0.975 $x2=0 $y2=0
319 GND:630 X2/NET4:7 3.92999e-06 // $x=25.06 $y=0.897 $x2=0 $y2=0
320 GND:1128 X2/NET4:7 9.62391e-07 // $x=22.835 $y=1.71 $x2=0 $y2=0
321 x2/x1/MN0:s X2/NET4:7 1.52275e-05 // $x=22.55 $y=1.975 $x2=0 $y2=0
322 GND:85 X2/NET4:8 0.000195471 // $x=26.23 $y=0.975 $x2=0 $y2=0
323 GND:109 X2/NET4:9 1.54316e-05 // $x=23.975 $y=6.64 $x2=12.975 $y2=6.442
324 GND:335 X2/NET4:9 1.18449e-06 // $x=22.855 $y=6.64 $x2=12.975 $y2=6.442
325 GND:331 X2/NET4:10 9.11272e-06 // $x=21.835 $y=5.96 $x2=12.975 $y2=6.4
326 GND:335 X2/NET4:10 2.89422e-05 // $x=22.855 $y=6.64 $x2=12.975 $y2=6.4
327 GND:618 X2/NET4:10 2.70629e-07 // $x=21.905 $y=5.99 $x2=12.975 $y2=6.4
328 GND:99 X2/NET4:13 1.13851e-05 // $x=26.22 $y=7.895 $x2=13.78 $y2=2.14
329 GND:109 X2/NET4:13 6.45906e-06 // $x=23.975 $y=6.64 $x2=13.78 $y2=2.14
330 GND:339 X2/NET4:13 3.4332e-05 // $x=24.045 $y=5.96 $x2=13.78 $y2=2.14
331 GND:641 X2/NET4:13 6.20383e-06 // $x=24.045 $y=5.96 $x2=13.78 $y2=2.14
332 x2/x1/MP11:g X2/NET4:13 1.41918e-06 // $x=24.035 $y=5.165 $x2=13.78 $y2=2.14
333 GND:1355 X2/NET4:13 6.68738e-07 // $x=24.035 $y=5.99 $x2=13.78 $y2=2.14
334 GND:99 X2/NET4:16 6.94334e-06 // $x=26.22 $y=7.895 $x2=13.81 $y2=2.14
335 GND:112 X2/NET4:16 1.48437e-06 // $x=24.045 $y=6.57 $x2=13.81 $y2=2.14
336 GND:339 X2/NET4:16 2.75916e-05 // $x=24.045 $y=5.96 $x2=13.81 $y2=2.14
337 GND:641 X2/NET4:16 4.85715e-06 // $x=24.045 $y=5.96 $x2=13.81 $y2=2.14
338 GND:68 X2/NET4:25 2.4947e-05 // $x=18.115 $y=8.575 $x2=12.975 $y2=6.045
339 GND:73 X2/NET4:25 5.77359e-07 // $x=20.01 $y=8.727 $x2=12.975 $y2=6.045
340 GND:78 X2/NET4:25 2.56681e-06 // $x=21.29 $y=7.895 $x2=12.975 $y2=6.045
341 GND:586 X2/NET4:25 5.60271e-07 // $x=20.01 $y=8.727 $x2=12.975 $y2=6.045
342 GND:599 X2/NET4:25 4.1889e-06 // $x=18.335 $y=6.4 $x2=12.975 $y2=6.045
343 GND:68 X2/NET4:30 1.74617e-05 // $x=18.115 $y=8.575 $x2=13.777 $y2=5.695
344 GND:73 X2/NET4:30 1.19491e-05 // $x=20.01 $y=8.727 $x2=13.777 $y2=5.695
345 GND:78 X2/NET4:30 1.22654e-06 // $x=21.29 $y=7.895 $x2=13.777 $y2=5.695
346 GND:586 X2/NET4:30 3.26999e-06 // $x=20.01 $y=8.727 $x2=13.777 $y2=5.695
347 GND:599 X2/NET4:30 2.73941e-06 // $x=18.335 $y=6.4 $x2=13.777 $y2=5.695
348 GND:85 X2/NET4:36 3.69738e-06 // $x=26.23 $y=0.975 $x2=0 $y2=0
349 GND:109 X2/NET4:42 1.68921e-05 // $x=23.975 $y=6.64 $x2=13.02 $y2=6.28
350 GND:112 X2/NET4:42 1.63688e-06 // $x=24.045 $y=6.57 $x2=13.02 $y2=6.28
351 GND:339 X2/NET4:42 2.82145e-05 // $x=24.045 $y=5.96 $x2=13.02 $y2=6.28
352 GND:641 X2/NET4:42 1.59306e-06 // $x=24.045 $y=5.96 $x2=13.02 $y2=6.28
353 GND:85 X2/NET4:47 5.22009e-05 // $x=26.23 $y=0.975 $x2=13.81 $y2=2.14
354 GND:630 X2/NET4:47 1.16991e-06 // $x=25.06 $y=0.897 $x2=13.81 $y2=2.14
355 GND:1135 X2/NET4:47 1.2538e-06 // $x=27.395 $y=0.897 $x2=13.81 $y2=2.14
356 x2/x1/MN8:s X2/NET4:47 3.7818e-06 // $x=24.79 $y=1.945 $x2=13.81 $y2=2.14
357 GND:99 X2/NET4:54 8.57298e-06 // $x=26.22 $y=7.895 $x2=12.92 $y2=5.585
358 GND:99 X2/NET4:57 1.34492e-05 // $x=26.22 $y=7.895 $x2=12.975 $y2=6.245
359 GND:663 X2/NET4:57 3.38567e-07 // $x=27.21 $y=8.727 $x2=12.975 $y2=6.245
360 x2/x1/MN14:s X2/NET4:57 3.13366e-06 // $x=25.89 $y=6.265 $x2=12.975 $y2=6.245
361 GND:68 X2/NET4:60 1.06413e-05 // $x=18.115 $y=8.575 $x2=12.975 $y2=6.4
362 GND:73 X2/NET4:60 3.57747e-06 // $x=20.01 $y=8.727 $x2=12.975 $y2=6.4
363 GND:99 X2/NET4:72 1.51507e-05 // $x=26.22 $y=7.895 $x2=0 $y2=0
364 GND:99 X2/NET4:73 2.62959e-06 // $x=26.22 $y=7.895 $x2=12.795 $y2=7.755
365 GND:82 X2/NET4:75 2.49566e-06 // $x=21.835 $y=6.57 $x2=0 $y2=0
366 GND:109 X2/NET4:75 4.3228e-06 // $x=23.975 $y=6.64 $x2=0 $y2=0
367 GND:112 X2/NET4:75 2.30083e-06 // $x=24.045 $y=6.57 $x2=0 $y2=0
368 GND:331 X2/NET4:75 2.59287e-06 // $x=21.835 $y=5.96 $x2=0 $y2=0
369 GND:99 X2/NET4:79 8.56324e-06 // $x=26.22 $y=7.895 $x2=0 $y2=0
370 GND:112 X2/NET4:79 2.46965e-06 // $x=24.045 $y=6.57 $x2=0 $y2=0
371 GND:641 X2/NET4:79 5.36119e-07 // $x=24.045 $y=5.96 $x2=0 $y2=0
372 x2/x1/MP11:g X2/NET4:79 2.12242e-07 // $x=24.035 $y=5.165 $x2=0 $y2=0
373 x2/x1/MP11:g X2/NET4:80 1.723e-06 // $x=24.035 $y=5.165 $x2=0 $y2=0
374 GND:85 X2/NET4:84 3.56086e-06 // $x=26.23 $y=0.975 $x2=0 $y2=0
375 x2/x1/MN8:s X2/NET4:84 5.33444e-07 // $x=24.79 $y=1.945 $x2=0 $y2=0
376 GND:99 X2/NET4:92 7.70363e-06 // $x=26.22 $y=7.895 $x2=0 $y2=0
377 x2/x1/MN14:s X2/NET4:92 1.79675e-06 // $x=25.89 $y=6.265 $x2=0 $y2=0
378 GND:73 X2/NET4:94 5.96263e-06 // $x=20.01 $y=8.727 $x2=0 $y2=0
379 GND:77 X2/NET4:98 3.01738e-05 // $x=22.73 $y=7.895 $x2=0 $y2=0
380 GND:78 X2/NET4:98 2.83144e-05 // $x=21.29 $y=7.895 $x2=0 $y2=0
381 GND:99 X2/NET4:98 1.91778e-05 // $x=26.22 $y=7.895 $x2=0 $y2=0