*SPEF "2.0"
*DESIGN "SKY130_OSU_RING_OSCILLATOR_MPR2XA_8_B0R2"
*DATE "Thu Nov  2 18:10:37 2023"
*VENDOR "Mentor Graphics Corp."
*PROGRAM "Calibre xRC"
*VERSION "v2023.2_27.15"
*DESIGN_FLOW "extraction"
*DIVIDER /
*DELIMITER :
*BUS_DELIMITER []
*T_UNIT 1 NS
*C_UNIT 1 PF
*R_UNIT 1 OHM
*L_UNIT 1 HENRY



// CIRCUIT TEMPERATURE 30C
// NOMINAL TEMPERATURE 30C

*PORTS 
 X5_Y1 B
 VDD B
 X4_Y1 B
 X3_Y1 B
 X2_Y1 B
 X1_Y1 B
 S5 B
 S4 B
 S3 B
 S2 B
 S1 B
 GND B

*D_NET X1/NET4 0.00669722
*CONN
*I x1/x1/MN9:g I 
*I x1/x1/MN8:g I 
*I x1/x1/MN6:g I 
*I x1/x1/MN5:g I 
*I x1/x1/MN3:g I 
*I x1/x1/MN4:g I 
*I x1/x1/MP5:g I 
*I x1/x1/MP7:g I 
*I x1/x1/MP8:g I 
*I x1/x1/MP4:g I 
*I x1/x1/MP2:g I 
*I x1/x1/MP3:g I 
*I x1/x8/MN0:d B 
*I x1/x8/MN1:d B 
*I x1/x8/MP1:d B 
*I x1/x8/MP0:d B 

*CAP
0 X1/NET4:89 GND:6 2.10468e-05 // $x=2.32 $y=4.41 $x2=5.72 $y2=8.732
1 X1/NET4:115 GND:6 3.98405e-06 // $x=4.965 $y=4.41 $x2=5.72 $y2=8.732
2 X1/NET4:2 GND:10 1.94179e-06 // $x=1.865 $y=2.865 $x2=1.385 $y2=2.75
3 X1/NET4:7 GND:10 6.48122e-06 // $x=2.345 $y=2.585 $x2=1.385 $y2=2.75
4 X1/NET4:45 GND:10 6.35849e-06 // $x=1.865 $y=2.865 $x2=1.385 $y2=2.75
5 X1/NET4:145 GND:10 2.58912e-07 // $x=2.345 $y=2.585 $x2=1.385 $y2=2.75
6 X1/NET4:2 GND:11 1.89559e-05 // $x=1.865 $y=2.865 $x2=1.795 $y2=2.445
7 X1/NET4:7 GND:11 7.85135e-06 // $x=2.345 $y=2.585 $x2=1.795 $y2=2.445
8 X1/NET4:45 GND:11 1.32381e-05 // $x=1.865 $y=2.865 $x2=1.795 $y2=2.445
9 X1/NET4:139 GND:11 8.98586e-06 // $x=1.865 $y=2.665 $x2=1.795 $y2=2.445
10 X1/NET4:145 GND:11 1.11053e-06 // $x=2.345 $y=2.585 $x2=1.795 $y2=2.445
11 X1/NET4:198 GND:11 1.461e-06 // $x=1.865 $y=2.5 $x2=1.795 $y2=2.445
12 X1/NET4:229 GND:11 9.91133e-07 // $x=1.865 $y=2.665 $x2=1.795 $y2=2.445
13 X1/NET4:198 GND:14 1.64917e-06 // $x=1.865 $y=2.5 $x2=1.88 $y2=1.895
14 X1/NET4:198 GND:16 2.90377e-06 // $x=1.865 $y=2.5 $x2=1.865 $y2=2.375
15 X1/NET4:7 GND:17 1.50869e-05 // $x=2.345 $y=2.585 $x2=2.44 $y2=2.025
16 X1/NET4:49 GND:17 1.00667e-05 // $x=2.475 $y=2.585 $x2=2.44 $y2=2.025
17 X1/NET4:145 GND:17 7.96219e-07 // $x=2.345 $y=2.585 $x2=2.44 $y2=2.025
18 X1/NET4:203 GND:17 4.41244e-06 // $x=2.345 $y=2.5 $x2=2.44 $y2=2.025
19 X1/NET4:2 GND:18 4.72337e-06 // $x=1.865 $y=2.865 $x2=2.145 $y2=2.025
20 X1/NET4:45 GND:18 1.54984e-06 // $x=1.865 $y=2.865 $x2=2.145 $y2=2.025
21 X1/NET4:47 GND:18 1.57592e-06 // $x=2.245 $y=3.145 $x2=2.145 $y2=2.025
22 X1/NET4:139 GND:18 7.73954e-07 // $x=1.865 $y=2.665 $x2=2.145 $y2=2.025
23 X1/NET4:198 GND:18 4.98093e-06 // $x=1.865 $y=2.5 $x2=2.145 $y2=2.025
24 X1/NET4:203 GND:18 9.37879e-07 // $x=2.345 $y=2.5 $x2=2.145 $y2=2.025
25 X1/NET4:229 GND:18 1.20954e-06 // $x=1.865 $y=2.665 $x2=2.145 $y2=2.025
26 X1/NET4:23 GND:20 2.78048e-05 // $x=6.405 $y=7.43 $x2=5.805 $y2=8.58
27 X1/NET4:24 GND:20 1.79688e-05 // $x=6.405 $y=7.77 $x2=5.805 $y2=8.58
28 X1/NET4:36 GND:20 1.76605e-05 // $x=6.405 $y=7.885 $x2=5.805 $y2=8.58
29 X1/NET4:64 GND:20 1.04234e-05 // $x=6.405 $y=7.245 $x2=5.805 $y2=8.58
30 X1/NET4:103 GND:20 1.49224e-05 // $x=6.405 $y=7.06 $x2=5.805 $y2=8.58
31 X1/NET4:181 GND:20 7.30742e-07 // $x=6.405 $y=7.885 $x2=5.805 $y2=8.58
32 x1/x8/MP1:d GND:20 7.30742e-07 // $x=6.265 $y=5.02 $x2=5.805 $y2=8.58
33 X1/NET4:103 GND:23 9.51194e-06 // $x=6.405 $y=7.06 $x2=6.03 $y2=6.405
34 x1/x8/MP1:d GND:23 7.17767e-06 // $x=6.265 $y=5.02 $x2=6.03 $y2=6.405
35 X1/NET4:23 GND:25 6.43356e-07 // $x=6.405 $y=7.43 $x2=20.98 $y2=8.732
36 X1/NET4:36 GND:25 1.32423e-05 // $x=6.405 $y=7.885 $x2=20.98 $y2=8.732
37 X1/NET4:64 GND:25 5.12606e-06 // $x=6.405 $y=7.245 $x2=20.98 $y2=8.732
38 X1/NET4:181 GND:25 2.15467e-06 // $x=6.405 $y=7.885 $x2=20.98 $y2=8.732
39 X1/NET4:7 GND:175 1.16065e-06 // $x=2.345 $y=2.585 $x2=9.49 $y2=0.875
40 X1/NET4:12 GND:175 1.11139e-06 // $x=3.45 $y=2.585 $x2=9.49 $y2=0.875
41 X1/NET4:14 GND:175 6.08184e-07 // $x=5.225 $y=2.585 $x2=9.49 $y2=0.875
42 X1/NET4:19 GND:175 5.58083e-07 // $x=5.705 $y=2.865 $x2=9.49 $y2=0.875
43 X1/NET4:48 GND:175 3.97942e-06 // $x=2.805 $y=2.585 $x2=9.49 $y2=0.875
44 X1/NET4:76 GND:175 5.89259e-06 // $x=3.07 $y=2.585 $x2=9.49 $y2=0.875
45 X1/NET4:198 GND:175 2.43415e-06 // $x=1.865 $y=2.5 $x2=9.49 $y2=0.875
46 X1/NET4:203 GND:175 3.26997e-06 // $x=2.345 $y=2.5 $x2=9.49 $y2=0.875
47 X1/NET4:208 GND:175 3.79615e-06 // $x=3.305 $y=2.5 $x2=9.49 $y2=0.875
48 X1/NET4:213 GND:175 3.60953e-06 // $x=3.785 $y=2.5 $x2=9.49 $y2=0.875
49 X1/NET4:218 GND:175 3.7423e-06 // $x=5.225 $y=2.5 $x2=9.49 $y2=0.875
50 X1/NET4:223 GND:175 3.92471e-06 // $x=5.705 $y=2.5 $x2=9.49 $y2=0.875
51 X1/NET4:2 GND:177 3.04286e-05 // $x=1.865 $y=2.865 $x2=1.385 $y2=2.865
52 X1/NET4:45 GND:177 2.69107e-06 // $x=1.865 $y=2.865 $x2=1.385 $y2=2.865
53 X1/NET4:139 GND:177 6.79368e-06 // $x=1.865 $y=2.665 $x2=1.385 $y2=2.865
54 X1/NET4:229 GND:177 6.61776e-07 // $x=1.865 $y=2.665 $x2=1.385 $y2=2.865
55 X1/NET4:2 GND:182 1.14613e-06 // $x=1.865 $y=2.865 $x2=1.985 $y2=2.025
56 X1/NET4:7 GND:182 3.34869e-07 // $x=2.345 $y=2.585 $x2=1.985 $y2=2.025
57 X1/NET4:45 GND:182 3.87294e-05 // $x=1.865 $y=2.865 $x2=1.985 $y2=2.025
58 X1/NET4:47 GND:182 7.99338e-06 // $x=2.245 $y=3.145 $x2=1.985 $y2=2.025
59 X1/NET4:49 GND:182 4.81216e-06 // $x=2.475 $y=2.585 $x2=1.985 $y2=2.025
60 X1/NET4:105 GND:182 4.11043e-05 // $x=2.105 $y=3.145 $x2=1.985 $y2=2.025
61 X1/NET4:203 GND:182 2.38246e-06 // $x=2.345 $y=2.5 $x2=1.985 $y2=2.025
62 X1/NET4:229 GND:182 3.83341e-07 // $x=1.865 $y=2.665 $x2=1.985 $y2=2.025
63 X1/NET4:7 GND:184 7.93425e-06 // $x=2.345 $y=2.585 $x2=2.585 $y2=2.025
64 X1/NET4:48 GND:184 1.02832e-05 // $x=2.805 $y=2.585 $x2=2.585 $y2=2.025
65 X1/NET4:49 GND:184 1.22577e-06 // $x=2.475 $y=2.585 $x2=2.585 $y2=2.025
66 X1/NET4:203 GND:184 6.1211e-07 // $x=2.345 $y=2.5 $x2=2.585 $y2=2.025
67 X1/NET4:2 GND:349 1.83804e-06 // $x=1.865 $y=2.865 $x2=1.385 $y2=2.665
68 X1/NET4:45 GND:349 1.74785e-06 // $x=1.865 $y=2.865 $x2=1.385 $y2=2.665
69 X1/NET4:139 GND:349 2.29325e-05 // $x=1.865 $y=2.665 $x2=1.385 $y2=2.665
70 x1/x1/MP5:g GND:349 1.97773e-06 // $x=1.865 $y=3.49 $x2=1.385 $y2=2.665
71 X1/NET4:229 GND:349 1.79728e-06 // $x=1.865 $y=2.665 $x2=1.385 $y2=2.665
72 X1/NET4:145 GND:358 1.34636e-06 // $x=2.345 $y=2.585 $x2=3.94 $y2=0.797
73 X1/NET4:151 GND:358 1.46734e-06 // $x=3.305 $y=2.585 $x2=3.94 $y2=0.797
74 X1/NET4:157 GND:358 1.318e-06 // $x=3.785 $y=2.665 $x2=3.94 $y2=0.797
75 X1/NET4:203 GND:358 5.49143e-06 // $x=2.345 $y=2.5 $x2=3.94 $y2=0.797
76 X1/NET4:208 GND:358 6.61034e-06 // $x=3.305 $y=2.5 $x2=3.94 $y2=0.797
77 X1/NET4:213 GND:358 6.61034e-06 // $x=3.785 $y=2.5 $x2=3.94 $y2=0.797
78 X1/NET4:231 GND:358 5.7301e-07 // $x=2.345 $y=2.665 $x2=3.94 $y2=0.797
79 X1/NET4:233 GND:358 1.14602e-06 // $x=3.305 $y=2.665 $x2=3.94 $y2=0.797
80 X1/NET4:235 GND:358 1.51712e-06 // $x=3.785 $y=2.665 $x2=3.94 $y2=0.797
81 X1/NET4:139 GND:359 1.3877e-06 // $x=1.865 $y=2.665 $x2=2.295 $y2=0.797
82 X1/NET4:145 GND:359 4.18724e-07 // $x=2.345 $y=2.585 $x2=2.295 $y2=0.797
83 X1/NET4:198 GND:359 6.61034e-06 // $x=1.865 $y=2.5 $x2=2.295 $y2=0.797
84 X1/NET4:203 GND:359 1.12027e-06 // $x=2.345 $y=2.5 $x2=2.295 $y2=0.797
85 X1/NET4:229 GND:359 1.64145e-06 // $x=1.865 $y=2.665 $x2=2.295 $y2=0.797
86 X1/NET4:231 GND:359 5.82216e-07 // $x=2.345 $y=2.665 $x2=2.295 $y2=0.797
87 X1/NET4:7 GND:365 3.23587e-06 // $x=2.345 $y=2.585 $x2=2.705 $y2=2.58
88 X1/NET4:45 GND:365 3.80474e-07 // $x=1.865 $y=2.865 $x2=2.705 $y2=2.58
89 X1/NET4:48 GND:365 2.80007e-06 // $x=2.805 $y=2.585 $x2=2.705 $y2=2.58
90 X1/NET4:49 GND:365 5.1107e-07 // $x=2.475 $y=2.585 $x2=2.705 $y2=2.58
91 X1/NET4:76 GND:365 2.50432e-06 // $x=3.07 $y=2.585 $x2=2.705 $y2=2.58
92 X1/NET4:145 GND:365 1.98322e-05 // $x=2.345 $y=2.585 $x2=2.705 $y2=2.58
93 X1/NET4:151 GND:365 2.80923e-06 // $x=3.305 $y=2.585 $x2=2.705 $y2=2.58
94 X1/NET4:203 GND:365 9.0049e-06 // $x=2.345 $y=2.5 $x2=2.705 $y2=2.58
95 X1/NET4:231 GND:365 3.01039e-06 // $x=2.345 $y=2.665 $x2=2.705 $y2=2.58
96 X1/NET4:23 GND:378 5.8742e-07 // $x=6.405 $y=7.43 $x2=10.555 $y2=8.732
97 X1/NET4:36 GND:378 3.25882e-06 // $x=6.405 $y=7.885 $x2=10.555 $y2=8.732
98 X1/NET4:181 GND:378 1.39846e-05 // $x=6.405 $y=7.885 $x2=10.555 $y2=8.732
99 X1/NET4:181 GND:389 1.62622e-05 // $x=6.405 $y=7.885 $x2=6.03 $y2=7.86
100 X1/NET4:23 GND:391 4.91318e-06 // $x=6.405 $y=7.43 $x2=6.03 $y2=6.405
101 X1/NET4:24 GND:391 5.4724e-06 // $x=6.405 $y=7.77 $x2=6.03 $y2=6.405
102 X1/NET4:36 GND:391 2.75831e-06 // $x=6.405 $y=7.885 $x2=6.03 $y2=6.405
103 X1/NET4:181 GND:391 1.74656e-05 // $x=6.405 $y=7.885 $x2=6.03 $y2=6.405
104 x1/x8/MP1:d GND:391 4.47144e-06 // $x=6.265 $y=5.02 $x2=6.03 $y2=6.405
105 X1/NET4:163 GND:405 1.61428e-06 // $x=5.225 $y=2.585 $x2=9.49 $y2=0.157
106 X1/NET4:218 GND:405 6.61034e-06 // $x=5.225 $y=2.5 $x2=9.49 $y2=0.157
107 X1/NET4:223 GND:405 4.88904e-06 // $x=5.705 $y=2.5 $x2=9.49 $y2=0.157
108 X1/NET4:237 GND:405 1.14602e-06 // $x=5.225 $y=2.665 $x2=9.49 $y2=0.157
109 X1/NET4:7 GND:844 1.01014e-06 // $x=2.345 $y=2.585 $x2=2.705 $y2=2.025
110 X1/NET4:203 GND:844 2.88157e-06 // $x=2.345 $y=2.5 $x2=2.705 $y2=2.025
111 X1/NET4:48 GND:849 8.64715e-07 // $x=2.805 $y=2.585 $x2=2.825 $y2=2.665
112 X1/NET4:76 GND:849 3.40746e-07 // $x=3.07 $y=2.585 $x2=2.825 $y2=2.665
113 X1/NET4:145 GND:849 2.53135e-06 // $x=2.345 $y=2.585 $x2=2.825 $y2=2.665
114 X1/NET4:151 GND:849 1.14671e-05 // $x=3.305 $y=2.585 $x2=2.825 $y2=2.665
115 X1/NET4:231 GND:849 3.12766e-06 // $x=2.345 $y=2.665 $x2=2.825 $y2=2.665
116 X1/NET4:233 GND:849 4.98436e-06 // $x=3.305 $y=2.665 $x2=2.825 $y2=2.665
117 X1/NET4:103 GND:853 7.43798e-06 // $x=6.405 $y=7.06 $x2=6.002 $y2=6.25
118 x1/x8/MP1:d GND:853 7.25523e-05 // $x=6.265 $y=5.02 $x2=6.002 $y2=6.25
119 X1/NET4:2 x1/x1/MP9:g 2.28959e-07 // $x=1.865 $y=2.865 $x2=1.385 $y2=3.49
120 X1/NET4:47 x1/x1/MP9:g 1.121e-06 // $x=2.245 $y=3.145 $x2=1.385 $y2=3.49
121 X1/NET4:105 x1/x1/MP9:g 2.47981e-06 // $x=2.105 $y=3.145 $x2=1.385 $y2=3.49
122 X1/NET4:139 x1/x1/MP9:g 1.97773e-06 // $x=1.865 $y=2.665 $x2=1.385 $y2=3.49
123 x1/x1/MP5:g x1/x1/MP9:g 5.81343e-05 // $x=1.865 $y=3.49 $x2=1.385 $y2=3.49
124 x1/x1/MP7:g x1/x1/MP9:g 2.46628e-06 // $x=2.345 $y=3.49 $x2=1.385 $y2=3.49
125 X1/NET4:46 x1/x1/MP6:g 7.10267e-07 // $x=3.415 $y=3.145 $x2=2.825 $y2=3.49
126 X1/NET4:108 x1/x1/MP6:g 1.57943e-06 // $x=3.07 $y=2.585 $x2=2.825 $y2=3.49
127 x1/x1/MP5:g x1/x1/MP6:g 3.0587e-06 // $x=1.865 $y=3.49 $x2=2.825 $y2=3.49
128 x1/x1/MP7:g x1/x1/MP6:g 5.81882e-05 // $x=2.345 $y=3.49 $x2=2.825 $y2=3.49
129 x1/x1/MP8:g x1/x1/MP6:g 5.65721e-05 // $x=3.305 $y=3.49 $x2=2.825 $y2=3.49
130 x1/x1/MP4:g x1/x1/MP6:g 1.42835e-06 // $x=3.785 $y=3.49 $x2=2.825 $y2=3.49
131 X1/NET4:198 GND:1053 4.07868e-05 // $x=1.865 $y=2.5 $x2=1.385 $y2=2.5
132 X1/NET4:203 GND:1053 2.42991e-06 // $x=2.345 $y=2.5 $x2=1.385 $y2=2.5
133 X1/NET4:76 GND:1058 8.71315e-07 // $x=3.07 $y=2.585 $x2=2.825 $y2=2.5
134 X1/NET4:198 GND:1058 9.52167e-07 // $x=1.865 $y=2.5 $x2=2.825 $y2=2.5
135 X1/NET4:203 GND:1058 3.91677e-05 // $x=2.345 $y=2.5 $x2=2.825 $y2=2.5
136 X1/NET4:208 GND:1058 3.94441e-05 // $x=3.305 $y=2.5 $x2=2.825 $y2=2.5
137 X1/NET4:213 GND:1058 1.76041e-06 // $x=3.785 $y=2.5 $x2=2.825 $y2=2.5
138 X1/NET4:2 GND:1104 5.93235e-07 // $x=1.865 $y=2.865 $x2=1.385 $y2=2.665
139 X1/NET4:45 GND:1104 1.13062e-06 // $x=1.865 $y=2.865 $x2=1.385 $y2=2.665
140 X1/NET4:139 GND:1104 3.87646e-06 // $x=1.865 $y=2.665 $x2=1.385 $y2=2.665
141 X1/NET4:229 GND:1104 4.41682e-05 // $x=1.865 $y=2.665 $x2=1.385 $y2=2.665
142 X1/NET4:231 GND:1104 1.57026e-06 // $x=2.345 $y=2.665 $x2=1.385 $y2=2.665
143 X1/NET4:46 GND:1106 4.08605e-07 // $x=3.415 $y=3.145 $x2=2.825 $y2=2.665
144 X1/NET4:108 GND:1106 8.97769e-07 // $x=3.07 $y=2.585 $x2=2.825 $y2=2.665
145 X1/NET4:145 GND:1106 1.79728e-06 // $x=2.345 $y=2.585 $x2=2.825 $y2=2.665
146 X1/NET4:151 GND:1106 1.79728e-06 // $x=3.305 $y=2.585 $x2=2.825 $y2=2.665
147 X1/NET4:231 GND:1106 4.20412e-05 // $x=2.345 $y=2.665 $x2=2.825 $y2=2.665
148 X1/NET4:233 GND:1106 4.52501e-05 // $x=3.305 $y=2.665 $x2=2.825 $y2=2.665
149 X1/NET4:198 x1/x1/MN9:s 1.00321e-05 // $x=1.865 $y=2.5 $x2=1.94 $y2=1.74
150 X1/NET4:203 x1/x1/MN9:s 1.00791e-05 // $x=2.345 $y=2.5 $x2=1.94 $y2=1.74
151 X1/NET4:213 x1/x1/MN5:s 9.77356e-06 // $x=3.785 $y=2.5 $x2=3.86 $y2=1.74
152 X1/NET4:218 x1/x1/MN1:s 8.36531e-06 // $x=5.225 $y=2.5 $x2=4.82 $y2=1.74
153 X1/NET4:100 x1/x8/MP1:s 2.36381e-06 // $x=6.255 $y=4.63 $x2=5.85 $y2=5.02
154 X1/NET4:103 x1/x8/MP1:s 9.57734e-06 // $x=6.405 $y=7.06 $x2=5.85 $y2=5.02
155 x1/x8/MP1:d x1/x8/MP1:s 5.35635e-05 // $x=6.265 $y=5.02 $x2=5.85 $y2=5.02
156 X1/NET4:14 X1/NET7:2 6.24553e-06 // $x=5.225 $y=2.585 $x2=0.257 $y2=8.732
157 X1/NET4:29 X1/NET7:2 6.01054e-07 // $x=3.785 $y=2.585 $x2=0.257 $y2=8.732
158 X1/NET4:56 X1/NET7:2 1.55328e-06 // $x=5.225 $y=2.585 $x2=0.257 $y2=8.732
159 X1/NET4:218 X1/NET7:2 2.27513e-06 // $x=5.225 $y=2.5 $x2=0.257 $y2=8.732
160 X1/NET4:14 X1/NET7:3 8.27737e-06 // $x=5.225 $y=2.585 $x2=0.75 $y2=0.157
161 X1/NET4:56 X1/NET7:3 3.98441e-06 // $x=5.225 $y=2.585 $x2=0.75 $y2=0.157
162 X1/NET4:163 X1/NET7:3 7.96219e-07 // $x=5.225 $y=2.585 $x2=0.75 $y2=0.157
163 X1/NET4:218 X1/NET7:3 4.62748e-06 // $x=5.225 $y=2.5 $x2=0.75 $y2=0.157
164 X1/NET4:14 X1/NET7:4 6.81375e-06 // $x=5.225 $y=2.585 $x2=0.242 $y2=0.157
165 X1/NET4:56 X1/NET7:4 3.58534e-07 // $x=5.225 $y=2.585 $x2=0.242 $y2=0.157
166 X1/NET4:120 X1/NET7:4 2.54476e-06 // $x=5.225 $y=2.68 $x2=0.242 $y2=0.157
167 X1/NET4:163 X1/NET7:4 1.01014e-06 // $x=5.225 $y=2.585 $x2=0.242 $y2=0.157
168 X1/NET4:218 X1/NET7:4 1.39865e-06 // $x=5.225 $y=2.5 $x2=0.242 $y2=0.157
169 X1/NET4:14 X1/NET7:8 2.09694e-05 // $x=5.225 $y=2.585 $x2=0 $y2=0
170 X1/NET4:29 X1/NET7:8 9.1068e-06 // $x=3.785 $y=2.585 $x2=0 $y2=0
171 X1/NET4:120 X1/NET7:8 3.11571e-06 // $x=5.225 $y=2.68 $x2=0 $y2=0
172 X1/NET4:163 X1/NET7:8 1.48557e-06 // $x=5.225 $y=2.585 $x2=0 $y2=0
173 X1/NET4:14 X1/NET7:11 5.59659e-07 // $x=5.225 $y=2.585 $x2=1.795 $y2=2.445
174 X1/NET4:56 X1/NET7:11 9.58077e-06 // $x=5.225 $y=2.585 $x2=1.795 $y2=2.445
175 X1/NET4:120 X1/NET7:11 6.88853e-06 // $x=5.225 $y=2.68 $x2=1.795 $y2=2.445
176 X1/NET4:135 X1/NET7:11 4.98356e-07 // $x=5.225 $y=2.68 $x2=1.795 $y2=2.445
177 X1/NET4:136 X1/NET7:11 2.9894e-06 // $x=5.06 $y=2.667 $x2=1.795 $y2=2.445
178 X1/NET4:218 X1/NET7:11 4.36207e-07 // $x=5.225 $y=2.5 $x2=1.795 $y2=2.445
179 X1/NET4:14 X1/NET7:13 5.74597e-06 // $x=5.225 $y=2.585 $x2=1.88 $y2=1.745
180 X1/NET4:19 X1/NET7:13 1.28945e-05 // $x=5.705 $y=2.865 $x2=1.88 $y2=1.745
181 X1/NET4:56 X1/NET7:13 7.81167e-07 // $x=5.225 $y=2.585 $x2=1.88 $y2=1.745
182 X1/NET4:61 X1/NET7:13 1.07816e-06 // $x=5.705 $y=3.025 $x2=1.88 $y2=1.745
183 X1/NET4:169 X1/NET7:13 1.35635e-06 // $x=5.705 $y=2.665 $x2=1.88 $y2=1.745
184 X1/NET4:218 X1/NET7:13 6.5078e-07 // $x=5.225 $y=2.5 $x2=1.88 $y2=1.745
185 X1/NET4:223 X1/NET7:13 4.26607e-06 // $x=5.705 $y=2.5 $x2=1.88 $y2=1.745
186 X1/NET4:239 X1/NET7:13 6.05534e-07 // $x=5.705 $y=2.665 $x2=1.88 $y2=1.745
187 X1/NET4:82 X1/NET7:17 8.26363e-06 // $x=5.705 $y=3.68 $x2=2.44 $y2=2.025
188 X1/NET4:123 X1/NET7:17 8.34767e-06 // $x=5.705 $y=3.68 $x2=2.44 $y2=2.025
189 x1/x1/MP3:g X1/NET7:17 9.76453e-07 // $x=5.705 $y=3.49 $x2=2.44 $y2=2.025
190 X1/NET4:19 X1/NET7:25 3.37413e-06 // $x=5.705 $y=2.865 $x2=20.98 $y2=8.732
191 X1/NET4:61 X1/NET7:25 4.52437e-05 // $x=5.705 $y=3.025 $x2=20.98 $y2=8.732
192 X1/NET4:62 X1/NET7:25 2.86322e-05 // $x=5.705 $y=3.495 $x2=20.98 $y2=8.732
193 X1/NET4:82 X1/NET7:25 5.62688e-06 // $x=5.705 $y=3.68 $x2=20.98 $y2=8.732
194 X1/NET4:123 X1/NET7:25 9.67883e-07 // $x=5.705 $y=3.68 $x2=20.98 $y2=8.732
195 X1/NET4:19 X1/NET7:29 1.14639e-06 // $x=5.705 $y=2.865 $x2=11.4 $y2=8.732
196 X1/NET4:61 X1/NET7:29 3.5717e-05 // $x=5.705 $y=3.025 $x2=11.4 $y2=8.732
197 X1/NET4:82 X1/NET7:29 3.0637e-07 // $x=5.705 $y=3.68 $x2=11.4 $y2=8.732
198 X1/NET4:100 X1/NET7:29 1.12883e-05 // $x=6.255 $y=4.63 $x2=11.4 $y2=8.732
199 X1/NET4:123 X1/NET7:29 8.85952e-06 // $x=5.705 $y=3.68 $x2=11.4 $y2=8.732
200 X1/NET4:223 X1/NET7:29 5.09448e-07 // $x=5.705 $y=2.5 $x2=11.4 $y2=8.732
201 X1/NET4:82 X1/NET7:32 3.5522e-05 // $x=5.705 $y=3.68 $x2=13.465 $y2=8.695
202 X1/NET4:123 X1/NET7:32 1.17481e-05 // $x=5.705 $y=3.68 $x2=13.465 $y2=8.695
203 X1/NET4:14 X1/NET7:39 2.19017e-06 // $x=5.225 $y=2.585 $x2=16.645 $y2=2.515
204 X1/NET4:29 X1/NET7:39 3.24273e-07 // $x=3.785 $y=2.585 $x2=16.645 $y2=2.515
205 X1/NET4:56 X1/NET7:39 4.38642e-07 // $x=5.225 $y=2.585 $x2=16.645 $y2=2.515
206 X1/NET4:120 X1/NET7:39 9.52421e-07 // $x=5.225 $y=2.68 $x2=16.645 $y2=2.515
207 X1/NET4:163 X1/NET7:39 1.81133e-05 // $x=5.225 $y=2.585 $x2=16.645 $y2=2.515
208 X1/NET4:237 X1/NET7:39 1.79728e-06 // $x=5.225 $y=2.665 $x2=16.645 $y2=2.515
209 X1/NET4:14 X1/NET7:54 1.01014e-06 // $x=5.225 $y=2.585 $x2=0 $y2=0
210 X1/NET4:19 X1/NET7:54 4.07555e-07 // $x=5.705 $y=2.865 $x2=0 $y2=0
211 X1/NET4:218 X1/NET7:54 3.98662e-06 // $x=5.225 $y=2.5 $x2=0 $y2=0
212 X1/NET4:223 X1/NET7:54 1.90006e-06 // $x=5.705 $y=2.5 $x2=0 $y2=0
213 X1/NET4:213 X1/NET7:60 1.84809e-06 // $x=3.785 $y=2.5 $x2=26.66 $y2=8.695
214 X1/NET4:218 X1/NET7:60 4.00599e-05 // $x=5.225 $y=2.5 $x2=26.66 $y2=8.695
215 X1/NET4:223 X1/NET7:60 1.01224e-06 // $x=5.705 $y=2.5 $x2=26.66 $y2=8.695
216 X1/NET4:14 X1/NET7:63 1.57869e-06 // $x=5.225 $y=2.585 $x2=31.27 $y2=0.157
217 X1/NET4:56 X1/NET7:63 4.70763e-07 // $x=5.225 $y=2.585 $x2=31.27 $y2=0.157
218 X1/NET4:120 X1/NET7:63 1.00888e-06 // $x=5.225 $y=2.68 $x2=31.27 $y2=0.157
219 X1/NET4:163 X1/NET7:63 1.79728e-06 // $x=5.225 $y=2.585 $x2=31.27 $y2=0.157
220 X1/NET4:237 X1/NET7:63 4.59236e-05 // $x=5.225 $y=2.665 $x2=31.27 $y2=0.157
221 X1/NET4:169 x1/x1/MN2:s 2.74756e-06 // $x=5.705 $y=2.665 $x2=26.66 $y2=0.157
222 X1/NET4:223 x1/x1/MN2:s 1.29435e-05 // $x=5.705 $y=2.5 $x2=26.66 $y2=0.157
223 X1/NET4:239 x1/x1/MN2:s 1.63721e-06 // $x=5.705 $y=2.665 $x2=26.66 $y2=0.157
224 X1/NET4:82 X1/NET1:12 2.50762e-06 // $x=5.705 $y=3.68 $x2=1.455 $y2=2.445
225 X1/NET4:92 X1/NET1:12 5.31436e-06 // $x=4.815 $y=3.705 $x2=1.455 $y2=2.445
226 x1/x1/MP2:g X1/NET1:12 1.19788e-06 // $x=5.225 $y=3.49 $x2=1.455 $y2=2.445
227 X1/NET4:136 X1/NET1:29 3.86831e-06 // $x=5.06 $y=2.667 $x2=11.4 $y2=8.732
228 X1/NET4:14 X1/NET1:30 3.14576e-07 // $x=5.225 $y=2.585 $x2=11.4 $y2=8.695
229 X1/NET4:19 X1/NET1:30 1.23121e-06 // $x=5.705 $y=2.865 $x2=11.4 $y2=8.695
230 X1/NET4:29 X1/NET1:30 3.17958e-06 // $x=3.785 $y=2.585 $x2=11.4 $y2=8.695
231 X1/NET4:32 X1/NET1:30 2.74775e-07 // $x=3.545 $y=3.145 $x2=11.4 $y2=8.695
232 X1/NET4:45 X1/NET1:30 2.30803e-07 // $x=1.865 $y=2.865 $x2=11.4 $y2=8.695
233 X1/NET4:47 X1/NET1:30 2.07335e-07 // $x=2.245 $y=3.145 $x2=11.4 $y2=8.695
234 X1/NET4:51 X1/NET1:30 2.0106e-05 // $x=3.785 $y=2.585 $x2=11.4 $y2=8.695
235 X1/NET4:56 X1/NET1:30 1.66826e-05 // $x=5.225 $y=2.585 $x2=11.4 $y2=8.695
236 X1/NET4:61 X1/NET1:30 3.66219e-06 // $x=5.705 $y=3.025 $x2=11.4 $y2=8.695
237 X1/NET4:62 X1/NET1:30 5.29072e-06 // $x=5.705 $y=3.495 $x2=11.4 $y2=8.695
238 X1/NET4:79 X1/NET1:30 7.76817e-06 // $x=3.545 $y=3.145 $x2=11.4 $y2=8.695
239 X1/NET4:82 X1/NET1:30 1.00408e-05 // $x=5.705 $y=3.68 $x2=11.4 $y2=8.695
240 X1/NET4:91 X1/NET1:30 2.07444e-05 // $x=3.785 $y=3.555 $x2=11.4 $y2=8.695
241 X1/NET4:92 X1/NET1:30 3.09676e-05 // $x=4.815 $y=3.705 $x2=11.4 $y2=8.695
242 X1/NET4:95 X1/NET1:30 1.8303e-05 // $x=4.965 $y=3.555 $x2=11.4 $y2=8.695
243 X1/NET4:112 X1/NET1:30 5.00115e-06 // $x=3.785 $y=2.585 $x2=11.4 $y2=8.695
244 X1/NET4:120 X1/NET1:30 1.01491e-05 // $x=5.225 $y=2.68 $x2=11.4 $y2=8.695
245 X1/NET4:135 X1/NET1:30 3.32306e-07 // $x=5.225 $y=2.68 $x2=11.4 $y2=8.695
246 X1/NET4:136 X1/NET1:30 1.07339e-05 // $x=5.06 $y=2.667 $x2=11.4 $y2=8.695
247 x1/x1/MP2:g X1/NET1:30 1.81773e-06 // $x=5.225 $y=3.49 $x2=11.4 $y2=8.695
248 X1/NET4:100 X1/NET1:59 6.97739e-07 // $x=6.255 $y=4.63 $x2=26.66 $y2=8.732
249 X1/NET4:120 X1/NET1:59 1.44745e-05 // $x=5.225 $y=2.68 $x2=26.66 $y2=8.732
250 X1/NET4:123 X1/NET1:59 4.36713e-06 // $x=5.705 $y=3.68 $x2=26.66 $y2=8.732
251 X1/NET4:124 X1/NET1:59 3.29349e-06 // $x=5.54 $y=3.692 $x2=26.66 $y2=8.732
252 X1/NET4:135 X1/NET1:59 1.04476e-05 // $x=5.225 $y=2.68 $x2=26.66 $y2=8.732
253 X1/NET4:136 X1/NET1:59 7.0778e-06 // $x=5.06 $y=2.667 $x2=26.66 $y2=8.732
254 X1/NET4:120 X1/NET1:63 2.97836e-06 // $x=5.225 $y=2.68 $x2=31.27 $y2=0.157
255 X1/NET4:92 X1/NET1:66 7.06776e-06 // $x=4.815 $y=3.705 $x2=26.66 $y2=0.195
256 X1/NET4:120 X1/NET1:66 3.21942e-05 // $x=5.225 $y=2.68 $x2=26.66 $y2=0.195
257 X1/NET4:136 X1/NET1:66 4.02872e-05 // $x=5.06 $y=2.667 $x2=26.66 $y2=0.195
258 X1/NET4:92 X1/NET1:70 7.36092e-07 // $x=4.815 $y=3.705 $x2=31.905 $y2=2.75
259 x1/x1/MP2:g X1/NET1:70 3.79262e-06 // $x=5.225 $y=3.49 $x2=31.905 $y2=2.75
260 X1/NET4:95 X1/NET1:91 4.66617e-07 // $x=4.965 $y=3.555 $x2=43.985 $y2=8.732
261 x1/x1/MP2:g X1/NET1:91 1.18177e-06 // $x=5.225 $y=3.49 $x2=43.985 $y2=8.732
262 X1/NET4:47 X1/X1/NET13:7 8.79756e-07 // $x=2.245 $y=3.145 $x2=0.257 $y2=8.732
263 X1/NET4:87 X1/X1/NET13:7 3.70717e-07 // $x=2.17 $y=4.26 $x2=0.257 $y2=8.732
264 X1/NET4:105 X1/X1/NET13:7 5.61418e-07 // $x=2.105 $y=3.145 $x2=0.257 $y2=8.732
265 X1/NET4:29 X1/X1/NET13:12 6.15705e-07 // $x=3.785 $y=2.585 $x2=1.455 $y2=2.445
266 X1/NET4:32 X1/X1/NET13:12 6.48838e-06 // $x=3.545 $y=3.145 $x2=1.455 $y2=2.445
267 X1/NET4:92 X1/X1/NET13:12 2.97922e-07 // $x=4.815 $y=3.705 $x2=1.455 $y2=2.445
268 X1/NET4:93 X1/X1/NET13:12 1.3877e-06 // $x=3.935 $y=3.705 $x2=1.455 $y2=2.445
269 X1/NET4:157 X1/X1/NET13:12 1.01014e-06 // $x=3.785 $y=2.665 $x2=1.455 $y2=2.445
270 x1/x1/MP4:g X1/X1/NET13:12 4.44671e-06 // $x=3.785 $y=3.49 $x2=1.455 $y2=2.445
271 X1/NET4:19 X1/X1/NET13:17 1.01294e-06 // $x=5.705 $y=2.865 $x2=2.44 $y2=2.025
272 X1/NET4:2 X1/X1/NET13:26 7.23355e-07 // $x=1.865 $y=2.865 $x2=5.89 $y2=8.732
273 X1/NET4:45 X1/X1/NET13:26 2.85548e-05 // $x=1.865 $y=2.865 $x2=5.89 $y2=8.732
274 X1/NET4:47 X1/X1/NET13:26 8.87993e-06 // $x=2.245 $y=3.145 $x2=5.89 $y2=8.732
275 X1/NET4:49 X1/X1/NET13:26 9.07385e-07 // $x=2.475 $y=2.585 $x2=5.89 $y2=8.732
276 X1/NET4:79 X1/X1/NET13:26 2.46044e-07 // $x=3.545 $y=3.145 $x2=5.89 $y2=8.732
277 X1/NET4:105 X1/X1/NET13:26 9.11667e-06 // $x=2.105 $y=3.145 $x2=5.89 $y2=8.732
278 X1/NET4:87 X1/X1/NET13:27 1.37571e-05 // $x=2.17 $y=4.26 $x2=7.145 $y2=8.732
279 x1/x1/MP5:g X1/X1/NET13:27 2.63159e-06 // $x=1.865 $y=3.49 $x2=7.145 $y2=8.732
280 X1/NET4:2 X1/X1/NET13:31 4.3419e-06 // $x=1.865 $y=2.865 $x2=13.465 $y2=8.732
281 X1/NET4:32 X1/X1/NET13:31 6.60315e-06 // $x=3.545 $y=3.145 $x2=13.465 $y2=8.732
282 X1/NET4:46 X1/X1/NET13:31 5.32216e-05 // $x=3.415 $y=3.145 $x2=13.465 $y2=8.732
283 X1/NET4:47 X1/X1/NET13:31 3.19242e-05 // $x=2.245 $y=3.145 $x2=13.465 $y2=8.732
284 X1/NET4:48 X1/X1/NET13:31 1.07921e-06 // $x=2.805 $y=2.585 $x2=13.465 $y2=8.732
285 X1/NET4:51 X1/X1/NET13:31 4.45092e-06 // $x=3.785 $y=2.585 $x2=13.465 $y2=8.732
286 X1/NET4:79 X1/X1/NET13:31 2.08692e-05 // $x=3.545 $y=3.145 $x2=13.465 $y2=8.732
287 X1/NET4:87 X1/X1/NET13:31 3.03317e-05 // $x=2.17 $y=4.26 $x2=13.465 $y2=8.732
288 X1/NET4:88 X1/X1/NET13:31 7.2997e-05 // $x=4.815 $y=4.41 $x2=13.465 $y2=8.732
289 X1/NET4:93 X1/X1/NET13:31 2.25133e-05 // $x=3.935 $y=3.705 $x2=13.465 $y2=8.732
290 X1/NET4:105 X1/X1/NET13:31 1.45806e-05 // $x=2.105 $y=3.145 $x2=13.465 $y2=8.732
291 X1/NET4:108 X1/X1/NET13:31 6.58932e-06 // $x=3.07 $y=2.585 $x2=13.465 $y2=8.732
292 x1/x1/MP5:g X1/X1/NET13:31 3.30065e-06 // $x=1.865 $y=3.49 $x2=13.465 $y2=8.732
293 x1/x1/MP7:g X1/X1/NET13:31 3.47629e-06 // $x=2.345 $y=3.49 $x2=13.465 $y2=8.732
294 x1/x1/MP8:g X1/X1/NET13:31 3.67334e-06 // $x=3.305 $y=3.49 $x2=13.465 $y2=8.732
295 x1/x1/MP4:g X1/X1/NET13:31 3.73925e-06 // $x=3.785 $y=3.49 $x2=13.465 $y2=8.732
296 X1/NET4:87 X1/X1/NET13:32 4.13074e-07 // $x=2.17 $y=4.26 $x2=13.465 $y2=8.695
297 X1/NET4:87 X1/X1/NET13:34 1.39711e-05 // $x=2.17 $y=4.26 $x2=9.49 $y2=0.157
298 X1/NET4:56 X1/X1/NET13:35 3.05893e-06 // $x=5.225 $y=2.585 $x2=11.4 $y2=0.157
299 X1/NET4:82 X1/X1/NET13:35 3.64997e-05 // $x=5.705 $y=3.68 $x2=11.4 $y2=0.157
300 X1/NET4:92 X1/X1/NET13:35 4.94815e-06 // $x=4.815 $y=3.705 $x2=11.4 $y2=0.157
301 X1/NET4:97 X1/X1/NET13:35 2.58662e-05 // $x=4.965 $y=4.26 $x2=11.4 $y2=0.157
302 X1/NET4:100 X1/X1/NET13:35 6.36777e-05 // $x=6.255 $y=4.63 $x2=11.4 $y2=0.157
303 X1/NET4:123 X1/X1/NET13:35 7.4895e-06 // $x=5.705 $y=3.68 $x2=11.4 $y2=0.157
304 X1/NET4:124 X1/X1/NET13:35 1.30088e-05 // $x=5.54 $y=3.692 $x2=11.4 $y2=0.157
305 X1/NET4:127 X1/X1/NET13:35 4.36903e-07 // $x=6.405 $y=7.245 $x2=11.4 $y2=0.157
306 X1/NET4:88 X1/X1/NET13:36 2.29366e-05 // $x=4.815 $y=4.41 $x2=11.4 $y2=0.195
307 X1/NET4:82 X1/X1/NET13:38 7.01767e-07 // $x=5.705 $y=3.68 $x2=13.465 $y2=0.195
308 X1/NET4:97 X1/X1/NET13:38 3.64456e-06 // $x=4.965 $y=4.26 $x2=13.465 $y2=0.195
309 X1/NET4:123 X1/X1/NET13:38 2.17918e-07 // $x=5.705 $y=3.68 $x2=13.465 $y2=0.195
310 X1/NET4:47 X1/X1/NET13:43 1.85486e-06 // $x=2.245 $y=3.145 $x2=17.14 $y2=1.745
311 X1/NET4:87 X1/X1/NET13:43 1.57112e-06 // $x=2.17 $y=4.26 $x2=17.14 $y2=1.745
312 X1/NET4:105 X1/X1/NET13:43 1.66972e-06 // $x=2.105 $y=3.145 $x2=17.14 $y2=1.745
313 X1/NET4:29 X1/X1/NET13:46 2.04422e-07 // $x=3.785 $y=2.585 $x2=17.125 $y2=2.375
314 X1/NET4:32 X1/X1/NET13:46 4.87557e-07 // $x=3.545 $y=3.145 $x2=17.125 $y2=2.375
315 X1/NET4:51 X1/X1/NET13:46 1.56383e-06 // $x=3.785 $y=2.585 $x2=17.125 $y2=2.375
316 X1/NET4:87 X1/X1/NET13:46 3.34466e-06 // $x=2.17 $y=4.26 $x2=17.125 $y2=2.375
317 X1/NET4:88 X1/X1/NET13:46 9.9109e-06 // $x=4.815 $y=4.41 $x2=17.125 $y2=2.375
318 X1/NET4:91 X1/X1/NET13:46 1.49163e-06 // $x=3.785 $y=3.555 $x2=17.125 $y2=2.375
319 X1/NET4:92 X1/X1/NET13:46 2.23793e-05 // $x=4.815 $y=3.705 $x2=17.125 $y2=2.375
320 X1/NET4:93 X1/X1/NET13:46 5.47592e-06 // $x=3.935 $y=3.705 $x2=17.125 $y2=2.375
321 X1/NET4:112 X1/X1/NET13:46 2.65239e-07 // $x=3.785 $y=2.585 $x2=17.125 $y2=2.375
322 X1/NET4:136 X1/X1/NET13:46 4.06252e-06 // $x=5.06 $y=2.667 $x2=17.125 $y2=2.375
323 x1/x1/MP4:g X1/X1/NET13:46 7.22154e-07 // $x=3.785 $y=3.49 $x2=17.125 $y2=2.375
324 X1/NET4:61 X1/X1/NET13:49 2.66452e-07 // $x=5.705 $y=3.025 $x2=21.065 $y2=6.52
325 X1/NET4:19 X1/X1/NET13:78 1.56255e-06 // $x=5.705 $y=2.865 $x2=32.665 $y2=2.025
326 X1/NET4:61 X1/X1/NET13:78 8.88144e-07 // $x=5.705 $y=3.025 $x2=32.665 $y2=2.025
327 X1/NET4:169 X1/X1/NET13:78 2.00916e-05 // $x=5.705 $y=2.665 $x2=32.665 $y2=2.025
328 x1/x1/MP3:g X1/X1/NET13:78 3.20729e-07 // $x=5.705 $y=3.49 $x2=32.665 $y2=2.025
329 X1/NET4:239 X1/X1/NET13:78 5.93899e-06 // $x=5.705 $y=2.665 $x2=32.665 $y2=2.025
330 X1/NET4:19 x1/x1/MP1:g 6.59276e-07 // $x=5.705 $y=2.865 $x2=36.55 $y2=6.405
331 X1/NET4:123 x1/x1/MP1:g 2.22154e-07 // $x=5.705 $y=3.68 $x2=36.55 $y2=6.405
332 X1/NET4:169 x1/x1/MP1:g 9.72361e-07 // $x=5.705 $y=2.665 $x2=36.55 $y2=6.405
333 x1/x1/MP2:g x1/x1/MP1:g 2.80717e-06 // $x=5.225 $y=3.49 $x2=36.55 $y2=6.405
334 x1/x1/MP3:g x1/x1/MP1:g 5.78397e-05 // $x=5.705 $y=3.49 $x2=36.55 $y2=6.405
335 X1/NET4:218 X1/X1/NET13:87 1.44343e-06 // $x=5.225 $y=2.5 $x2=37.665 $y2=8.732
336 X1/NET4:223 X1/X1/NET13:87 1.14733e-05 // $x=5.705 $y=2.5 $x2=37.665 $y2=8.732
337 X1/NET4:19 X1/X1/NET13:95 3.622e-07 // $x=5.705 $y=2.865 $x2=41.92 $y2=0.157
338 X1/NET4:61 X1/X1/NET13:95 3.74945e-07 // $x=5.705 $y=3.025 $x2=41.92 $y2=0.157
339 X1/NET4:169 X1/X1/NET13:95 1.79728e-06 // $x=5.705 $y=2.665 $x2=41.92 $y2=0.157
340 X1/NET4:239 X1/X1/NET13:95 4.34064e-05 // $x=5.705 $y=2.665 $x2=41.92 $y2=0.157
341 X1/NET4:47 x1/x1/MP9:d 6.00809e-07 // $x=2.245 $y=3.145 $x2=47.66 $y2=1.895
342 X1/NET4:105 x1/x1/MP9:d 1.49443e-06 // $x=2.105 $y=3.145 $x2=47.66 $y2=1.895
343 X1/NET4:29 x1/x1/MP4:s 2.63812e-07 // $x=3.785 $y=2.585 $x2=47.645 $y2=2.215
344 X1/NET4:91 x1/x1/MP4:s 5.78855e-07 // $x=3.785 $y=3.555 $x2=47.645 $y2=2.215
345 x1/x1/MP4:g x1/x1/MP4:s 8.08928e-06 // $x=3.785 $y=3.49 $x2=47.645 $y2=2.215
346 X1/NET4:2 X1/X1/NET9:2 9.79823e-06 // $x=1.865 $y=2.865 $x2=0.257 $y2=8.732
347 X1/NET4:12 X1/X1/NET9:2 2.74624e-07 // $x=3.45 $y=2.585 $x2=0.257 $y2=8.732
348 X1/NET4:19 X1/X1/NET9:2 2.54041e-07 // $x=5.705 $y=2.865 $x2=0.257 $y2=8.732
349 X1/NET4:29 X1/X1/NET9:2 3.46349e-07 // $x=3.785 $y=2.585 $x2=0.257 $y2=8.732
350 X1/NET4:32 X1/X1/NET9:2 1.02672e-05 // $x=3.545 $y=3.145 $x2=0.257 $y2=8.732
351 X1/NET4:47 X1/X1/NET9:2 2.58046e-06 // $x=2.245 $y=3.145 $x2=0.257 $y2=8.732
352 X1/NET4:49 X1/X1/NET9:2 8.90357e-07 // $x=2.475 $y=2.585 $x2=0.257 $y2=8.732
353 X1/NET4:76 X1/X1/NET9:2 5.95632e-06 // $x=3.07 $y=2.585 $x2=0.257 $y2=8.732
354 X1/NET4:79 X1/X1/NET9:2 1.7934e-06 // $x=3.545 $y=3.145 $x2=0.257 $y2=8.732
355 X1/NET4:105 X1/X1/NET9:2 1.11137e-06 // $x=2.105 $y=3.145 $x2=0.257 $y2=8.732
356 X1/NET4:108 X1/X1/NET9:2 8.36414e-06 // $x=3.07 $y=2.585 $x2=0.257 $y2=8.732
357 X1/NET4:139 X1/X1/NET9:2 2.58912e-07 // $x=1.865 $y=2.665 $x2=0.257 $y2=8.732
358 X1/NET4:145 X1/X1/NET9:2 1.70677e-06 // $x=2.345 $y=2.585 $x2=0.257 $y2=8.732
359 X1/NET4:151 X1/X1/NET9:2 1.84501e-06 // $x=3.305 $y=2.585 $x2=0.257 $y2=8.732
360 X1/NET4:157 X1/X1/NET9:2 3.32724e-06 // $x=3.785 $y=2.665 $x2=0.257 $y2=8.732
361 X1/NET4:7 X1/X1/NET9:4 7.30745e-06 // $x=2.345 $y=2.585 $x2=0.242 $y2=0.157
362 X1/NET4:12 X1/X1/NET9:4 2.28131e-05 // $x=3.45 $y=2.585 $x2=0.242 $y2=0.157
363 X1/NET4:29 X1/X1/NET9:4 5.21575e-07 // $x=3.785 $y=2.585 $x2=0.242 $y2=0.157
364 X1/NET4:76 X1/X1/NET9:4 1.38258e-05 // $x=3.07 $y=2.585 $x2=0.242 $y2=0.157
365 X1/NET4:145 X1/X1/NET9:4 6.92463e-07 // $x=2.345 $y=2.585 $x2=0.242 $y2=0.157
366 X1/NET4:151 X1/X1/NET9:4 2.00352e-06 // $x=3.305 $y=2.585 $x2=0.242 $y2=0.157
367 X1/NET4:208 X1/X1/NET9:4 3.7045e-06 // $x=3.305 $y=2.5 $x2=0.242 $y2=0.157
368 X1/NET4:233 X1/X1/NET9:4 1.20966e-06 // $x=3.305 $y=2.665 $x2=0.242 $y2=0.157
369 X1/NET4:11 X1/X1/NET9:5 9.32639e-06 // $x=3.625 $y=2.585 $x2=0 $y2=0
370 X1/NET4:12 X1/X1/NET9:5 1.61038e-05 // $x=3.45 $y=2.585 $x2=0 $y2=0
371 X1/NET4:29 X1/X1/NET9:5 8.41559e-06 // $x=3.785 $y=2.585 $x2=0 $y2=0
372 X1/NET4:32 X1/X1/NET9:5 9.774e-07 // $x=3.545 $y=3.145 $x2=0 $y2=0
373 X1/NET4:51 X1/X1/NET9:5 3.93447e-06 // $x=3.785 $y=2.585 $x2=0 $y2=0
374 X1/NET4:108 X1/X1/NET9:5 4.27933e-07 // $x=3.07 $y=2.585 $x2=0 $y2=0