*SPEF "2.0"
*DESIGN "SKY130_OSU_RING_OSCILLATOR_MPR2CT_8"
*DATE "Fri Oct 27 10:30:31 2023"
*VENDOR "Mentor Graphics Corp."
*PROGRAM "Calibre xRC"
*VERSION "v2023.2_27.15"
*DESIGN_FLOW "extraction"
*DIVIDER /
*DELIMITER :
*BUS_DELIMITER []
*T_UNIT 1 NS
*C_UNIT 1 PF
*R_UNIT 1 OHM
*L_UNIT 1 HENRY



// CIRCUIT TEMPERATURE 30C
// NOMINAL TEMPERATURE 30C

*PORTS 
 X5_Y1 B
 GND B
 VDD B
 X4_Y1 B
 X3_Y1 B
 X2_Y1 B
 X1_Y1 B
 S5 B
 S4 B
 S3 B
 S2 B
 S1 B

*D_NET NET5 0.0152833
*CONN
*I x1/x1/MN13:g I 
*I x1/x1/MN15:g I 
*I x1/x1/MP13:g I 
*I x1/x1/MP15:g I 
*I x1/x3/MN0:s B 
*I x1/x2/MN1:s B 
*I x5/x7/MN0:d B 
*I x1/x3/MP1:s B 
*I x1/x2/MP0:s B 
*I x5/x7/MP0:d B 

*CAP
0 NET5:16 X1/NET1:8 5.49349e-06 // $x=12.387 $y=-1.775 $x2=14.095 $y2=-2.949
1 NET5:47 X1/NET1:8 2.90055e-05 // $x=14.755 $y=-3.32 $x2=14.095 $y2=-2.949
2 NET5:54 X1/NET1:8 7.05266e-06 // $x=14.897 $y=0.265 $x2=14.095 $y2=-2.949
3 NET5:51 X1/NET1:12 1.49323e-05 // $x=14.81 $y=0.352 $x2=14.9 $y2=1.34
4 NET5:16 X1/NET1:15 2.80607e-05 // $x=12.387 $y=-1.775 $x2=11.84 $y2=-2.997
5 NET5:15 X1/NET1:19 3.25717e-06 // $x=12.39 $y=-1.614 $x2=13.665 $y2=-2.287
6 NET5:16 X1/NET1:19 2.87197e-05 // $x=12.387 $y=-1.775 $x2=13.665 $y2=-2.287
7 NET5:19 X1/NET1:19 1.7783e-06 // $x=12.475 $y=-3.274 $x2=13.665 $y2=-2.287
8 NET5:47 X1/NET1:19 2.72589e-05 // $x=14.755 $y=-3.32 $x2=13.665 $y2=-2.287
9 NET5:63 X1/NET1:19 2.83495e-05 // $x=12.142 $y=-1.612 $x2=13.665 $y2=-2.287
10 NET5:70 X1/NET1:19 1.06369e-05 // $x=12.635 $y=-3.272 $x2=13.665 $y2=-2.287
11 NET5:16 X1/NET1:21 1.64691e-06 // $x=12.387 $y=-1.775 $x2=13.745 $y2=-2.865
12 NET5:47 X1/NET1:21 6.14231e-05 // $x=14.755 $y=-3.32 $x2=13.745 $y2=-2.865
13 NET5:54 X1/NET1:21 1.69474e-05 // $x=14.897 $y=0.265 $x2=13.745 $y2=-2.865
14 NET5:16 X1/NET1:22 2.36969e-06 // $x=12.387 $y=-1.775 $x2=13.745 $y2=-2.375
15 NET5:54 X1/NET1:22 3.36319e-05 // $x=14.897 $y=0.265 $x2=13.745 $y2=-2.375
16 NET5:23 X1/NET1:24 2.25458e-05 // $x=14.095 $y=0.97 $x2=13.745 $y2=1.315
17 NET5:42 X1/NET1:24 2.26988e-05 // $x=12.142 $y=1.865 $x2=13.745 $y2=1.315
18 NET5:54 X1/NET1:24 4.63677e-05 // $x=14.897 $y=0.265 $x2=13.745 $y2=1.315
19 NET5:72 X1/NET1:24 3.63114e-05 // $x=14.14 $y=1.015 $x2=13.745 $y2=1.315
20 NET5:75 X1/NET1:24 5.61577e-05 // $x=14.097 $y=0.352 $x2=13.745 $y2=1.315
21 NET5:104 X1/NET1:24 2.26579e-07 // $x=14.095 $y=0.97 $x2=13.745 $y2=1.315
22 x1/x3/MP1:s X1/NET1:24 9.60888e-06 // $x=13.915 $y=-0.415 $x2=13.745 $y2=1.315
23 NET5:61 X1/NET1:28 2.40357e-07 // $x=6.825 $y=0.53 $x2=7.505 $y2=-3.039
24 NET5:51 X1/NET1:37 7.08868e-06 // $x=14.81 $y=0.352 $x2=14.945 $y2=1.385
25 NET5:23 X1/NET1:38 2.35365e-05 // $x=14.095 $y=0.97 $x2=14.78 $y2=1.387
26 NET5:51 X1/NET1:38 1.51403e-05 // $x=14.81 $y=0.352 $x2=14.78 $y2=1.387
27 NET5:72 X1/NET1:38 3.82901e-05 // $x=14.14 $y=1.015 $x2=14.78 $y2=1.387
28 NET5:102 X1/NET1:38 1.00097e-06 // $x=14.095 $y=2.425 $x2=14.78 $y2=1.387
29 NET5:104 X1/NET1:38 6.9281e-06 // $x=14.095 $y=0.97 $x2=14.78 $y2=1.387
30 NET5:45 X1/NET1:60 2.81419e-06 // $x=73.845 $y=-5.087 $x2=14.095 $y2=-4.405
31 NET5:47 X1/NET1:60 6.17843e-07 // $x=14.755 $y=-3.32 $x2=14.095 $y2=-4.405
32 x1/x2/MN1:s X1/NET1:60 1.55138e-06 // $x=14.76 $y=-4.855 $x2=14.095 $y2=-4.405
33 NET5:47 X1/NET1:63 5.82381e-06 // $x=14.755 $y=-3.32 $x2=14.095 $y2=-2.949
34 x1/x2/MN1:s X1/NET1:63 1.18271e-05 // $x=14.76 $y=-4.855 $x2=14.095 $y2=-2.949
35 x1/x3/MP1:s x1/x2/MP1:s 1.0705e-06 // $x=13.915 $y=-0.415 $x2=13.915 $y2=-2.825
36 NET5:51 x1/x3/MP0:s 6.25594e-06 // $x=14.81 $y=0.352 $x2=14.76 $y2=-0.415
37 NET5:54 x1/x3/MP0:s 1.14907e-05 // $x=14.897 $y=0.265 $x2=14.76 $y2=-0.415
38 NET5:102 x1/x3/MP0:s 1.55138e-06 // $x=14.095 $y=2.425 $x2=14.76 $y2=-0.415
39 NET5:104 x1/x3/MP0:s 1.276e-05 // $x=14.095 $y=0.97 $x2=14.76 $y2=-0.415
40 x1/x3/MP1:s x1/x3/MP0:s 2.26908e-06 // $x=13.915 $y=-0.415 $x2=14.76 $y2=-0.415
41 NET5:1 X1/NET7:1 1.53894e-06 // $x=6.665 $y=0.53 $x2=0 $y2=0
42 NET5:11 X1/NET7:1 1.63753e-05 // $x=6.825 $y=0.53 $x2=0 $y2=0
43 NET5:38 X1/NET7:1 1.9533e-05 // $x=6.787 $y=1.865 $x2=0 $y2=0
44 NET5:39 X1/NET7:1 4.67291e-06 // $x=12.06 $y=1.947 $x2=0 $y2=0
45 NET5:61 X1/NET7:1 4.36179e-06 // $x=6.825 $y=0.53 $x2=0 $y2=0
46 NET5:93 X1/NET7:1 3.80056e-06 // $x=7.13 $y=0.53 $x2=0 $y2=0
47 NET5:1 X1/NET7:2 1.43218e-05 // $x=6.665 $y=0.53 $x2=0 $y2=0
48 NET5:38 X1/NET7:2 4.4869e-06 // $x=6.787 $y=1.865 $x2=0 $y2=0
49 NET5:61 X1/NET7:2 6.07659e-06 // $x=6.825 $y=0.53 $x2=0 $y2=0
50 NET5:38 X1/NET7:4 1.28071e-06 // $x=6.787 $y=1.865 $x2=7.505 $y2=-3.039
51 NET5:39 X1/NET7:4 2.13434e-06 // $x=12.06 $y=1.947 $x2=7.505 $y2=-3.039
52 NET5:129 X1/NET7:4 2.03124e-06 // $x=7.3 $y=0.56 $x2=7.505 $y2=-3.039
53 NET5:147 X1/NET7:4 8.45114e-06 // $x=7.525 $y=0.725 $x2=7.505 $y2=-3.039
54 NET5:157 X1/NET7:4 3.84667e-07 // $x=7.525 $y=0.56 $x2=7.505 $y2=-3.039
55 NET5:38 X1/NET7:8 8.65207e-06 // $x=6.787 $y=1.865 $x2=14.095 $y2=-2.949
56 NET5:38 X1/NET7:15 2.95258e-05 // $x=6.787 $y=1.865 $x2=11.84 $y2=-2.997
57 NET5:39 X1/NET7:15 3.41997e-05 // $x=12.06 $y=1.947 $x2=11.84 $y2=-2.997
58 NET5:61 X1/NET7:15 1.96639e-05 // $x=6.825 $y=0.53 $x2=11.84 $y2=-2.997
59 NET5:129 X1/NET7:15 9.43258e-07 // $x=7.3 $y=0.56 $x2=11.84 $y2=-2.997
60 NET5:147 X1/NET7:15 1.80649e-06 // $x=7.525 $y=0.725 $x2=11.84 $y2=-2.997
61 NET5:1 X1/NET7:27 2.91001e-05 // $x=6.665 $y=0.53 $x2=7.505 $y2=-3.04
62 NET5:11 X1/NET7:27 2.58674e-06 // $x=6.825 $y=0.53 $x2=7.505 $y2=-3.04
63 NET5:93 X1/NET7:27 2.10422e-05 // $x=7.13 $y=0.53 $x2=7.505 $y2=-3.04
64 NET5:129 X1/NET7:27 1.00225e-06 // $x=7.3 $y=0.56 $x2=7.505 $y2=-3.04
65 NET5:1 X1/NET7:31 5.3683e-07 // $x=6.665 $y=0.53 $x2=7.645 $y2=-3.04
66 NET5:38 X1/NET7:31 7.17391e-06 // $x=6.787 $y=1.865 $x2=7.645 $y2=-3.04
67 NET5:61 X1/NET7:31 9.78152e-07 // $x=6.825 $y=0.53 $x2=7.645 $y2=-3.04
68 NET5:147 X1/NET7:31 1.25345e-06 // $x=7.525 $y=0.725 $x2=7.645 $y2=-3.04
69 NET5:157 X1/NET7:31 1.80503e-06 // $x=7.525 $y=0.56 $x2=7.645 $y2=-3.04
70 NET5:1 X1/NET7:42 1.65685e-05 // $x=6.665 $y=0.53 $x2=7.295 $y2=-2.055
71 NET5:11 X1/NET7:42 1.15351e-06 // $x=6.825 $y=0.53 $x2=7.295 $y2=-2.055
72 NET5:129 X1/NET7:42 2.26924e-07 // $x=7.3 $y=0.56 $x2=7.295 $y2=-2.055
73 NET5:157 X1/NET7:42 2.26585e-07 // $x=7.525 $y=0.56 $x2=7.295 $y2=-2.055
74 x1/x1/MP13:g x1/x1/MP12:g 4.95811e-05 // $x=5.225 $y=-0.265 $x2=0 $y2=0
75 NET5:142 X1/NET7:50 4.95811e-05 // $x=5.225 $y=0.725 $x2=0 $y2=0
76 NET5:1 X1/NET7:60 4.22587e-06 // $x=6.665 $y=0.53 $x2=14.095 $y2=-4.405
77 NET5:93 X1/NET7:60 4.81106e-07 // $x=7.13 $y=0.53 $x2=14.095 $y2=-4.405
78 NET5:129 X1/NET7:60 2.26675e-07 // $x=7.3 $y=0.56 $x2=14.095 $y2=-4.405
79 NET5:152 X1/NET7:60 5.22188e-05 // $x=5.225 $y=0.56 $x2=14.095 $y2=-4.405
80 NET5:157 X1/NET7:60 3.12259e-06 // $x=7.525 $y=0.56 $x2=14.095 $y2=-4.405
81 x1/x1/MP15:g x1/x1/MP0:g 2.17433e-05 // $x=7.525 $y=-0.265 $x2=7.64 $y2=-2.14
82 NET5:39 X1/X1/N_3:15 2.51788e-07 // $x=12.06 $y=1.947 $x2=11.84 $y2=-2.997
83 NET5:39 X1/X1/N_3:24 1.70188e-06 // $x=12.06 $y=1.947 $x2=13.745 $y2=1.315
84 NET5:38 X1/X1/N_3:26 4.3755e-06 // $x=6.787 $y=1.865 $x2=13.825 $y2=1.4
85 NET5:61 X1/X1/N_3:26 5.94628e-07 // $x=6.825 $y=0.53 $x2=13.825 $y2=1.4
86 NET5:61 X1/X1/N_3:28 3.0384e-06 // $x=6.825 $y=0.53 $x2=7.505 $y2=-3.039
87 NET5:39 X1/X1/N_3:39 1.45635e-05 // $x=12.06 $y=1.947 $x2=0 $y2=0
88 NET5:61 X1/X1/N_3:41 3.67256e-05 // $x=6.825 $y=0.53 $x2=0 $y2=0
89 NET5:61 X1/X1/N_3:42 6.28161e-06 // $x=6.825 $y=0.53 $x2=7.295 $y2=-2.055
90 NET5:11 X1/NET9:21 7.59565e-06 // $x=6.825 $y=0.53 $x2=13.745 $y2=-2.865
91 NET5:39 X1/NET9:21 2.4992e-05 // $x=12.06 $y=1.947 $x2=13.745 $y2=-2.865
92 NET5:61 X1/NET9:21 3.81589e-05 // $x=6.825 $y=0.53 $x2=13.745 $y2=-2.865
93 x1/x1/MP15:g x1/x1/MP14:g 4.94956e-05 // $x=7.525 $y=-0.265 $x2=0 $y2=0
94 NET5:147 X1/NET9:34 4.94956e-05 // $x=7.525 $y=0.725 $x2=14.14 $y2=-2.905
95 NET5:157 X1/NET9:44 5.21333e-05 // $x=7.525 $y=0.56 $x2=0 $y2=0
96 NET5:157 X1/NET9:49 1.07808e-06 // $x=7.525 $y=0.56 $x2=7.715 $y2=-3.329
97 NET5:42 X1/NET11:3 8.78353e-06 // $x=12.142 $y=1.865 $x2=7.505 $y2=-3.04
98 NET5:39 X1/NET11:8 2.98475e-05 // $x=12.06 $y=1.947 $x2=14.095 $y2=-2.949
99 NET5:42 X1/NET11:12 9.80498e-06 // $x=12.142 $y=1.865 $x2=14.9 $y2=1.34
100 NET5:42 X1/NET11:29 5.24985e-06 // $x=12.142 $y=1.865 $x2=0 $y2=0
101 NET5:45 NET1:1 6.10147e-06 // $x=73.845 $y=-5.087 $x2=0 $y2=0
102 NET5:45 NET1:26 1.04891e-06 // $x=73.845 $y=-5.087 $x2=13.825 $y2=1.4
103 NET5:45 NET1:37 0.000255666 // $x=73.845 $y=-5.087 $x2=14.945 $y2=1.385
104 NET5:45 NET1:47 4.17303e-05 // $x=73.845 $y=-5.087 $x2=7.46 $y2=-2.14
105 NET5:45 NET1:58 1.44969e-05 // $x=73.845 $y=-5.087 $x2=0 $y2=0
106 NET5:45 NET1:68 1.04335e-06 // $x=73.845 $y=-5.087 $x2=14.9 $y2=1.34
107 NET5:45 NET1:80 5.66472e-06 // $x=73.845 $y=-5.087 $x2=0 $y2=0
108 NET5:45 x1/x7/MN0:d 1.45906e-06 // $x=73.845 $y=-5.087 $x2=0 $y2=0
109 NET5:45 x2/x2/MN1:s 2.02429e-06 // $x=73.845 $y=-5.087 $x2=0 $y2=0
110 NET5:45 X2/NET1:15 4.25241e-06 // $x=73.845 $y=-5.087 $x2=11.84 $y2=-2.997
111 NET5:45 X2/NET1:60 2.81419e-06 // $x=73.845 $y=-5.087 $x2=14.095 $y2=-4.405
112 NET5:45 NET2:1 6.18438e-06 // $x=73.845 $y=-5.087 $x2=0 $y2=0
113 NET5:45 NET2:26 1.07357e-06 // $x=73.845 $y=-5.087 $x2=13.825 $y2=1.4
114 NET5:45 NET2:37 0.000255457 // $x=73.845 $y=-5.087 $x2=14.945 $y2=1.385
115 NET5:45 NET2:47 4.14844e-05 // $x=73.845 $y=-5.087 $x2=7.46 $y2=-2.14
116 NET5:45 NET2:58 1.44966e-05 // $x=73.845 $y=-5.087 $x2=0 $y2=0
117 NET5:45 NET2:68 1.11637e-06 // $x=73.845 $y=-5.087 $x2=14.9 $y2=1.34
118 NET5:45 NET2:80 5.62304e-06 // $x=73.845 $y=-5.087 $x2=0 $y2=0
119 NET5:45 x2/x7/MN0:d 1.45906e-06 // $x=73.845 $y=-5.087 $x2=0 $y2=0
120 NET5:45 x3/x2/MN1:s 2.00733e-06 // $x=73.845 $y=-5.087 $x2=0 $y2=0
121 NET5:45 X3/NET1:15 4.22166e-06 // $x=73.845 $y=-5.087 $x2=11.84 $y2=-2.997
122 NET5:45 X3/NET1:60 2.79139e-06 // $x=73.845 $y=-5.087 $x2=14.095 $y2=-4.405
123 NET5:45 NET3:1 5.95755e-06 // $x=73.845 $y=-5.087 $x2=0 $y2=0
124 NET5:45 NET3:26 9.9436e-07 // $x=73.845 $y=-5.087 $x2=13.825 $y2=1.4
125 NET5:45 NET3:37 0.000255811 // $x=73.845 $y=-5.087 $x2=14.945 $y2=1.385
126 NET5:45 NET3:47 4.14844e-05 // $x=73.845 $y=-5.087 $x2=7.46 $y2=-2.14
127 NET5:45 NET3:58 1.44012e-05 // $x=73.845 $y=-5.087 $x2=0 $y2=0
128 NET5:45 NET3:68 7.97406e-07 // $x=73.845 $y=-5.087 $x2=14.9 $y2=1.34
129 NET5:45 NET3:80 5.62304e-06 // $x=73.845 $y=-5.087 $x2=0 $y2=0
130 NET5:45 x3/x7/MN0:d 1.4458e-06 // $x=73.845 $y=-5.087 $x2=0 $y2=0
131 NET5:45 x4/x2/MN1:s 2.00733e-06 // $x=73.845 $y=-5.087 $x2=0 $y2=0
132 NET5:45 X4/NET1:15 4.2676e-06 // $x=73.845 $y=-5.087 $x2=11.84 $y2=-2.997
133 NET5:45 X4/NET1:60 2.79139e-06 // $x=73.845 $y=-5.087 $x2=14.095 $y2=-4.405
134 NET5:45 NET4:1 6.04105e-06 // $x=73.845 $y=-5.087 $x2=0 $y2=0
135 NET5:45 NET4:26 1.32366e-06 // $x=73.845 $y=-5.087 $x2=13.825 $y2=1.4
136 NET5:45 NET4:37 0.000252102 // $x=73.845 $y=-5.087 $x2=14.945 $y2=1.385
137 NET5:45 NET4:47 4.14844e-05 // $x=73.845 $y=-5.087 $x2=7.46 $y2=-2.14
138 NET5:45 NET4:58 1.44012e-05 // $x=73.845 $y=-5.087 $x2=0 $y2=0
139 NET5:45 NET4:72 1.75429e-06 // $x=73.845 $y=-5.087 $x2=7.715 $y2=-2.825
140 NET5:45 NET4:80 5.62304e-06 // $x=73.845 $y=-5.087 $x2=0 $y2=0
141 NET5:45 x4/x7/MN0:d 1.4458e-06 // $x=73.845 $y=-5.087 $x2=0 $y2=0
142 NET5:45 x5/x2/MN1:s 2.00733e-06 // $x=73.845 $y=-5.087 $x2=0 $y2=0
143 NET5:45 X5/NET1:15 4.2366e-06 // $x=73.845 $y=-5.087 $x2=11.84 $y2=-2.997
144 NET5:45 X5/NET1:60 2.79139e-06 // $x=73.845 $y=-5.087 $x2=14.095 $y2=-4.405
145 NET5:1 X1/X1/N_2:5 1.30341e-05 // $x=6.665 $y=0.53 $x2=7.705 $y2=-3.04
146 NET5:126 X1/X1/N_2:5 2.01228e-06 // $x=5 $y=0.56 $x2=7.705 $y2=-3.04
147 x1/x1/MP13:g X1/X1/N_2:5 5.04817e-06 // $x=5.225 $y=-0.265 $x2=7.705 $y2=-3.04
148 NET5:1 X1/X1/N_2:13 1.23661e-05 // $x=6.665 $y=0.53 $x2=14.945 $y2=1.387
149 NET5:1 X1/X1/N_2:17 2.26178e-07 // $x=6.665 $y=0.53 $x2=11.927 $y2=-2.91
150 x1/x1/MP13:g X1/X1/N_2:17 1.74142e-05 // $x=5.225 $y=-0.265 $x2=11.927 $y2=-2.91
151 NET5:1 X1/X1/N_2:22 1.70383e-05 // $x=6.665 $y=0.53 $x2=13.745 $y2=-2.375
152 NET5:61 X1/X1/N_2:22 8.408e-07 // $x=6.825 $y=0.53 $x2=13.745 $y2=-2.375
153 NET5:126 X1/X1/N_2:22 2.25115e-05 // $x=5 $y=0.56 $x2=13.745 $y2=-2.375
154 x1/x1/MP13:g X1/X1/N_2:22 9.61541e-06 // $x=5.225 $y=-0.265 $x2=13.745 $y2=-2.375
155 NET5:152 X1/X1/N_2:22 2.41805e-06 // $x=5.225 $y=0.56 $x2=13.745 $y2=-2.375
156 NET5:1 X1/X1/N_2:31 4.65578e-06 // $x=6.665 $y=0.53 $x2=7.645 $y2=-3.04
157 x1/x1/MP13:g X1/X1/N_2:31 4.51273e-06 // $x=5.225 $y=-0.265 $x2=7.645 $y2=-3.04
158 x1/x1/MP13:g x1/x1/MP9\@2:g 1.566e-05 // $x=5.225 $y=-0.265 $x2=0 $y2=0
159 NET5:1 x1/x1/MN12:d 5.04153e-06 // $x=6.665 $y=0.53 $x2=7.715 $y2=-2.825
160 NET5:38 x1/x1/MN12:d 1.98052e-06 // $x=6.787 $y=1.865 $x2=7.715 $y2=-2.825
161 NET5:152 x1/x1/MN12:d 9.61541e-06 // $x=5.225 $y=0.56 $x2=7.715 $y2=-2.825
162 NET5:15 X1/X1/N_0:15 2.1143e-06 // $x=12.39 $y=-1.614 $x2=11.84 $y2=-2.997
163 NET5:63 X1/X1/N_0:15 6.10217e-06 // $x=12.142 $y=-1.612 $x2=11.84 $y2=-2.997
164 x1/x1/MP15:g X1/X1/N_0:27 1.74503e-05 // $x=7.525 $y=-0.265 $x2=7.505 $y2=-3.04
165 NET5:38 X1/X1/N_0:32 1.19698e-06 // $x=6.787 $y=1.865 $x2=13.745 $y2=-2.287
166 NET5:61 X1/X1/N_0:32 1.23304e-06 // $x=6.825 $y=0.53 $x2=13.745 $y2=-2.287
167 NET5:93 X1/X1/N_0:32 2.4143e-07 // $x=7.13 $y=0.53 $x2=13.745 $y2=-2.287
168 NET5:129 X1/X1/N_0:32 2.16833e-05 // $x=7.3 $y=0.56 $x2=13.745 $y2=-2.287
169 x1/x1/MP15:g X1/X1/N_0:32 1.10996e-05 // $x=7.525 $y=-0.265 $x2=13.745 $y2=-2.287
170 NET5:157 X1/X1/N_0:32 2.41805e-06 // $x=7.525 $y=0.56 $x2=13.745 $y2=-2.287
171 x1/x1/MP15:g X1/X1/N_0:45 4.95842e-06 // $x=7.525 $y=-0.265 $x2=0 $y2=0
172 NET5:16 X1/X1/N_0:66 7.60127e-07 // $x=12.387 $y=-1.775 $x2=0 $y2=0
173 NET5:19 X1/X1/N_0:66 1.01341e-06 // $x=12.475 $y=-3.274 $x2=0 $y2=0
174 NET5:157 x1/x1/MN14:d 1.10996e-05 // $x=7.525 $y=0.56 $x2=14.067 $y2=-4.674
175 NET5:39 X1/X1/N_1:5 2.51788e-07 // $x=12.06 $y=1.947 $x2=7.705 $y2=-3.04
176 NET5:42 X1/X1/N_1:5 1.04566e-05 // $x=12.142 $y=1.865 $x2=7.705 $y2=-3.04
177 NET5:16 X1/X1/N_1:8 2.8133e-06 // $x=12.387 $y=-1.775 $x2=14.095 $y2=-2.949
178 NET5:15 X1/X1/N_1:11 1.54565e-06 // $x=12.39 $y=-1.614 $x2=14.9 $y2=1.387
179 NET5:16 X1/X1/N_1:11 9.3111e-06 // $x=12.387 $y=-1.775 $x2=14.9 $y2=1.387
180 NET5:63 X1/X1/N_1:11 4.82681e-05 // $x=12.142 $y=-1.612 $x2=14.9 $y2=1.387
181 NET5:39 X1/X1/N_1:16 1.55091e-05 // $x=12.06 $y=1.947 $x2=7.645 $y2=-2.997
182 NET5:42 X1/X1/N_1:16 6.797e-06 // $x=12.142 $y=1.865 $x2=7.645 $y2=-2.997
183 NET5:15 S1 1.1836e-05 // $x=12.39 $y=-1.614 $x2=0 $y2=0
184 NET5:16 S1 9.40853e-06 // $x=12.387 $y=-1.775 $x2=0 $y2=0
185 NET5:63 S1 1.94522e-06 // $x=12.142 $y=-1.612 $x2=0 $y2=0
186 NET5:16 S1:2 1.68703e-05 // $x=12.387 $y=-1.775 $x2=0 $y2=0
187 NET5:47 S1:2 2.11436e-05 // $x=14.755 $y=-3.32 $x2=0 $y2=0
188 NET5:16 S1:5 2.60137e-05 // $x=12.387 $y=-1.775 $x2=7.705 $y2=-3.04
189 NET5:54 S1:5 2.60367e-06 // $x=14.897 $y=0.265 $x2=7.705 $y2=-3.04
190 NET5:42 S1:12 6.00342e-06 // $x=12.142 $y=1.865 $x2=14.9 $y2=1.34
191 NET5:15 S1:18 1.95359e-06 // $x=12.39 $y=-1.614 $x2=11.927 $y2=-2.375
192 NET5:16 S1:18 3.77435e-06 // $x=12.387 $y=-1.775 $x2=11.927 $y2=-2.375
193 NET5:47 S1:18 3.05174e-07 // $x=14.755 $y=-3.32 $x2=11.927 $y2=-2.375
194 NET5:63 S1:18 1.20911e-05 // $x=12.142 $y=-1.612 $x2=11.927 $y2=-2.375
195 NET5:42 S1:22 1.13746e-05 // $x=12.142 $y=1.865 $x2=13.745 $y2=-2.375
196 NET5:15 S1:23 4.48489e-06 // $x=12.39 $y=-1.614 $x2=13.745 $y2=-2.2
197 NET5:42 S1:23 5.68851e-05 // $x=12.142 $y=1.865 $x2=13.745 $y2=-2.2
198 NET5:63 S1:23 9.51721e-06 // $x=12.142 $y=-1.612 $x2=13.745 $y2=-2.2
199 NET5:16 S1:26 1.47083e-05 // $x=12.387 $y=-1.775 $x2=13.825 $y2=1.4
200 NET5:19 S1:26 1.03036e-05 // $x=12.475 $y=-3.274 $x2=13.825 $y2=1.4
201 NET5:44 S1:26 8.10554e-06 // $x=12.457 $y=-3.435 $x2=13.825 $y2=1.4
202 NET5:47 S1:26 8.42786e-06 // $x=14.755 $y=-3.32 $x2=13.825 $y2=1.4
203 NET5:42 S1:32 1.83879e-05 // $x=12.142 $y=1.865 $x2=13.745 $y2=-2.287
204 NET5:104 S1:32 2.44188e-06 // $x=14.095 $y=0.97 $x2=13.745 $y2=-2.287
205 x1/x3/MP1:s S1:32 8.01752e-07 // $x=13.915 $y=-0.415 $x2=13.745 $y2=-2.287
206 x1/x2/MN1:s x1/x2/MN1:g 3.60504e-05 // $x=14.76 $y=-4.855 $x2=0 $y2=0
207 NET5:104 x1/x3/MN1:g 5.3306e-06 // $x=14.095 $y=0.97 $x2=0 $y2=0
208 NET5:47 x1/x2/MP2:g 3.37521e-06 // $x=14.755 $y=-3.32 $x2=0 $y2=0
209 NET5:27 S1:57 6.43979e-07 // $x=14.9 $y=-3.319 $x2=14.04 $y2=-2.134
210 x1/x3/MP1:s S1:61 3.25084e-06 // $x=13.915 $y=-0.415 $x2=14.095 $y2=-2.795
211 NET5:104 S1:63 1.31424e-05 // $x=14.095 $y=0.97 $x2=14.095 $y2=-2.949
212 NET5:23 S1:67 3.33981e-06 // $x=14.095 $y=0.97 $x2=14.9 $y2=1.34
213 NET5:51 S1:67 7.46276e-07 // $x=14.81 $y=0.352 $x2=14.9 $y2=1.34
214 NET5:73 S1:67 2.50737e-07 // $x=14.14 $y=0.85 $x2=14.9 $y2=1.34
215 NET5:75 S1:67 3.02614e-06 // $x=14.097 $y=0.352 $x2=14.9 $y2=1.34
216 NET5:132 S1:67 5.23049e-06 // $x=14.067 $y=0.815 $x2=14.9 $y2=1.34
217 x1/x3/MP1:s S1:67 1.89747e-05 // $x=13.915 $y=-0.415 $x2=14.9 $y2=1.34
218 NET5:27 X1/NET5:2 4.13257e-06 // $x=14.9 $y=-3.319 $x2=0 $y2=0
219 NET5:44 X1/NET5:2 1.6035e-05 // $x=12.457 $y=-3.435 $x2=0 $y2=0
220 NET5:47 X1/NET5:2 1.8339e-05 // $x=14.755 $y=-3.32 $x2=0 $y2=0
221 x1/x2/MN1:s X1/NET5:2 1.29812e-05 // $x=14.76 $y=-4.855 $x2=0 $y2=0
222 NET5:27 X1/NET5:3 5.19742e-05 // $x=14.9 $y=-3.319 $x2=7.505 $y2=-3.04
223 NET5:45 X1/NET5:3 2.50224e-05 // $x=73.845 $y=-5.087 $x2=7.505 $y2=-3.04
224 NET5:47 X1/NET5:3 2.50459e-06 // $x=14.755 $y=-3.32 $x2=7.505 $y2=-3.04
225 NET5:78 X1/NET5:3 6.4739e-06 // $x=14.93 $y=-3.32 $x2=7.505 $y2=-3.04
226 x1/x2/MN1:s X1/NET5:3 2.20108e-05 // $x=14.76 $y=-4.855 $x2=7.505 $y2=-3.04
227 NET5:27 X1/NET5:6 8.73092e-06 // $x=14.9 $y=-3.319 $x2=7.705 $y2=-3.039
228 NET5:54 X1/NET5:6 3.80666e-05 // $x=14.897 $y=0.265 $x2=7.705 $y2=-3.039
229 NET5:78 X1/NET5:6 8.17043e-06 // $x=14.93 $y=-3.32 $x2=7.705 $y2=-3.039
230 x1/x2/MN1:s X1/NET5:6 8.76089e-06 // $x=14.76 $y=-4.855 $x2=7.705 $y2=-3.039
231 NET5:44 X1/NET5:8 9.73753e-06 // $x=12.457 $y=-3.435 $x2=14.095 $y2=-2.949
232 NET5:45 X1/NET5:8 6.92691e-06 // $x=73.845 $y=-5.087 $x2=14.095 $y2=-2.949
233 x1/x2/MN1:s X1/NET5:8 6.22523e-06 // $x=14.76 $y=-4.855 $x2=14.095 $y2=-2.949
234 NET5:27 X1/NET5:21 9.46762e-06 // $x=14.9 $y=-3.319 $x2=13.745 $y2=-2.865
235 NET5:47 X1/NET5:21 8.76818e-06 // $x=14.755 $y=-3.32 $x2=13.745 $y2=-2.865
236 NET5:54 X1/NET5:21 1.17799e-05 // $x=14.897 $y=0.265 $x2=13.745 $y2=-2.865
237 x1/x2/MN1:s X1/NET5:21 0.000113379 // $x=14.76 $y=-4.855 $x2=13.745 $y2=-2.865
238 NET5:27 X1/NET5:28 2.05637e-06 // $x=14.9 $y=-3.319 $x2=7.505 $y2=-3.039
239 x1/x2/MN1:s X1/NET5:28 3.58001e-07 // $x=14.76 $y=-4.855 $x2=7.505 $y2=-3.039
240 x1/x2/MN1:s X1/NET5:33 1.50639e-05 // $x=14.76 $y=-4.855 $x2=13.745 $y2=-2.905
241 x1/x2/MN1:s x1/x6/MN0:g 1.10954e-05 // $x=14.76 $y=-4.855 $x2=14.14 $y2=-2.904
242 x1/x2/MN1:s x1/x6/MP0:g 4.16263e-06 // $x=14.76 $y=-4.855 $x2=14.945 $y2=1.387
243 x1/x2/MN1:s X1/NET5:44 3.28864e-07 // $x=14.76 $y=-4.855 $x2=0 $y2=0
244 NET5:45 x1/x2/MN0:d 2.21698e-06 // $x=73.845 $y=-5.087 $x2=7.46 $y2=-2.14
245 x1/x2/MN1:s x1/x2/MN0:d 2.76303e-05 // $x=14.76 $y=-4.855 $x2=7.46 $y2=-2.14
246 NET5:104 X1/NET4:1 2.42961e-05 // $x=14.095 $y=0.97 $x2=0 $y2=0
247 NET5:73 X1/NET4:5 1.27411e-05 // $x=14.14 $y=0.85 $x2=7.705 $y2=-3.04
248 NET5:75 X1/NET4:5 2.71498e-06 // $x=14.097 $y=0.352 $x2=7.705 $y2=-3.04
249 NET5:23 X1/NET4:6 1.64252e-06 // $x=14.095 $y=0.97 $x2=7.705 $y2=-3.039
250 NET5:72 X1/NET4:6 6.30408e-06 // $x=14.14 $y=1.015 $x2=7.705 $y2=-3.039
251 NET5:104 X1/NET4:8 7.76332e-06 // $x=14.095 $y=0.97 $x2=14.095 $y2=-2.949
252 NET5:102 X1/NET4:22 1.63443e-05 // $x=14.095 $y=2.425 $x2=13.745 $y2=-2.375
253 NET5:104 X1/NET4:22 1.7586e-05 // $x=14.095 $y=0.97 $x2=13.745 $y2=-2.375
254 NET5:23 x1/x3/MP1:d 6.23798e-06 // $x=14.095 $y=0.97 $x2=0 $y2=0
255 NET5:51 x1/x3/MP1:d 9.56639e-06 // $x=14.81 $y=0.352 $x2=0 $y2=0
256 NET5:54 x1/x3/MP1:d 5.1738e-06 // $x=14.897 $y=0.265 $x2=0 $y2=0
257 NET5:73 x1/x3/MP1:d 3.22525e-06 // $x=14.14 $y=0.85 $x2=0 $y2=0
258 NET5:75 x1/x3/MP1:d 2.64017e-06 // $x=14.097 $y=0.352 $x2=0 $y2=0
259 NET5:104 x1/x3/MP1:d 4.47144e-06 // $x=14.095 $y=0.97 $x2=0 $y2=0
260 NET5:132 x1/x3/MP1:d 6.60992e-05 // $x=14.067 $y=0.815 $x2=0 $y2=0
261 x1/x3/MP1:s x1/x3/MP1:d 4.91455e-05 // $x=13.915 $y=-0.415 $x2=0 $y2=0
262 x1/x2/MN1:s X1/NET2:2 7.48955e-06 // $x=14.76 $y=-4.855 $x2=0 $y2=0
263 NET5:45 X1/NET2:8 8.37152e-06 // $x=73.845 $y=-5.087 $x2=14.095 $y2=-2.949
264 x1/x2/MN1:s X1/NET2:8 2.11485e-06 // $x=14.76 $y=-4.855 $x2=14.095 $y2=-2.949
265 NET5:54 X1/NET2:22 3.44542e-06 // $x=14.897 $y=0.265 $x2=13.745 $y2=-2.375
266 x1/x2/MN1:s X1/NET2:22 7.06674e-06 // $x=14.76 $y=-4.855 $x2=13.745 $y2=-2.375
267 NET5:45 x1/x6/MN0:d 2.97409e-06 // $x=73.845 $y=-5.087 $x2=7.715 $y2=-2.99
268 x1/x2/MN1:s x1/x6/MN0:d 2.86844e-06 // $x=14.76 $y=-4.855 $x2=7.715 $y2=-2.99
269 NET5:54 x1/x4/MP0:d 3.16999e-06 // $x=14.897 $y=0.265 $x2=7.715 $y2=-3.329
270 NET5:45 X2/NET5:3 2.50224e-05 // $x=73.845 $y=-5.087 $x2=7.505 $y2=-3.04
271 NET5:45 X2/NET5:8 6.92691e-06 // $x=73.845 $y=-5.087 $x2=14.095 $y2=-2.949
272 NET5:45 x2/x2/MN0:d 2.21698e-06 // $x=73.845 $y=-5.087 $x2=7.46 $y2=-2.14
273 NET5:45 X2/NET2:8 8.37152e-06 // $x=73.845 $y=-5.087 $x2=14.095 $y2=-2.949
274 NET5:45 x2/x6/MN0:d 2.97409e-06 // $x=73.845 $y=-5.087 $x2=7.715 $y2=-2.99
275 NET5:45 X3/NET5:3 2.4825e-05 // $x=73.845 $y=-5.087 $x2=7.505 $y2=-3.04
276 NET5:45 X3/NET5:8 6.85581e-06 // $x=73.845 $y=-5.087 $x2=14.095 $y2=-2.949
277 NET5:45 x3/x2/MN0:d 2.19888e-06 // $x=73.845 $y=-5.087 $x2=7.46 $y2=-2.14
278 NET5:45 X3/NET2:8 8.27889e-06 // $x=73.845 $y=-5.087 $x2=14.095 $y2=-2.949
279 NET5:45 x3/x6/MN0:d 2.95659e-06 // $x=73.845 $y=-5.087 $x2=7.715 $y2=-2.99
280 NET5:45 X4/NET5:3 2.4825e-05 // $x=73.845 $y=-5.087 $x2=7.505 $y2=-3.04
281 NET5:45 X4/NET5:8 6.85581e-06 // $x=73.845 $y=-5.087 $x2=14.095 $y2=-2.949
282 NET5:45 x4/x2/MN0:d 2.19888e-06 // $x=73.845 $y=-5.087 $x2=7.46 $y2=-2.14
283 NET5:45 X4/NET2:8 8.27889e-06 // $x=73.845 $y=-5.087 $x2=14.095 $y2=-2.949
284 NET5:45 x4/x6/MN0:d 2.95659e-06 // $x=73.845 $y=-5.087 $x2=7.715 $y2=-2.99
285 NET5:2 VDD:2 8.44989e-06 // $x=4.59 $y=0.53 $x2=0 $y2=0
286 NET5:1 VDD:5 2.32125e-05 // $x=6.665 $y=0.53 $x2=7.705 $y2=-3.04
287 NET5:11 VDD:5 7.87849e-06 // $x=6.825 $y=0.53 $x2=7.705 $y2=-3.04
288 NET5:61 VDD:5 1.2105e-05 // $x=6.825 $y=0.53 $x2=7.705 $y2=-3.04
289 NET5:89 VDD:5 2.16495e-06 // $x=4.83 $y=0.53 $x2=7.705 $y2=-3.04
290 NET5:93 VDD:5 2.87699e-06 // $x=7.13 $y=0.53 $x2=7.705 $y2=-3.04
291 NET5:129 VDD:5 2.08703e-06 // $x=7.3 $y=0.56 $x2=7.705 $y2=-3.04
292 x1/x1/MP13:g VDD:5 5.8273e-06 // $x=5.225 $y=-0.265 $x2=7.705 $y2=-3.04
293 x1/x1/MP15:g VDD:5 8.44769e-06 // $x=7.525 $y=-0.265 $x2=7.705 $y2=-3.04
294 NET5:1 VDD:6 1.25907e-06 // $x=6.665 $y=0.53 $x2=7.705 $y2=-3.039
295 NET5:89 VDD:6 1.66217e-06 // $x=4.83 $y=0.53 $x2=7.705 $y2=-3.039
296 NET5:31 VDD:161 3.13996e-06 // $x=73.94 $y=-2.939 $x2=0 $y2=0
297 NET5:120 VDD:161 2.24897e-06 // $x=73.94 $y=-2.939 $x2=0 $y2=0
298 NET5:15 VDD:165 3.87234e-05 // $x=12.39 $y=-1.614 $x2=0 $y2=0
299 NET5:19 VDD:165 4.40515e-07 // $x=12.475 $y=-3.274 $x2=0 $y2=0
300 NET5:23 VDD:165 3.48287e-06 // $x=14.095 $y=0.97 $x2=0 $y2=0
301 NET5:27 VDD:165 8.6262e-07 // $x=14.9 $y=-3.319 $x2=0 $y2=0
302 NET5:42 VDD:165 8.04486e-05 // $x=12.142 $y=1.865 $x2=0 $y2=0
303 NET5:51 VDD:165 3.6248e-07 // $x=14.81 $y=0.352 $x2=0 $y2=0
304 NET5:54 VDD:165 9.21621e-05 // $x=14.897 $y=0.265 $x2=0 $y2=0
305 NET5:63 VDD:165 1.23321e-05 // $x=12.142 $y=-1.612 $x2=0 $y2=0
306 NET5:72 VDD:165 5.74228e-07 // $x=14.14 $y=1.015 $x2=0 $y2=0
307 NET5:75 VDD:165 4.26302e-05 // $x=14.097 $y=0.352 $x2=0 $y2=0
308 NET5:78 VDD:165 3.17204e-06 // $x=14.93 $y=-3.32 $x2=0 $y2=0
309 x1/x2/MN1:s VDD:165 2.608e-06 // $x=14.76 $y=-4.855 $x2=0 $y2=0
310 x1/x3/MP1:s VDD:165 2.29065e-06 // $x=13.915 $y=-0.415 $x2=0 $y2=0
311 x1/x1/MP13:g VDD:191 4.28354e-06 // $x=5.225 $y=-0.265 $x2=0 $y2=0
312 NET5:1 VDD:192 3.02299e-07 // $x=6.665 $y=0.53 $x2=0 $y2=0
313 x1/x1/MP15:g VDD:215 3.34369e-06 // $x=7.525 $y=-0.265 $x2=0 $y2=0
314 NET5:15 VDD:263 9.66459e-06 // $x=12.39 $y=-1.614 $x2=0 $y2=0
315 x1/x2/MN1:s VDD:273 1.21602e-05 // $x=14.76 $y=-4.855 $x2=0 $y2=0
316 x1/x3/MP1:s VDD:273 1.0652e-05 // $x=13.915 $y=-0.415 $x2=0 $y2=0
317 NET5:2 VDD:754 1.9744e-06 // $x=4.59 $y=0.53 $x2=0 $y2=0
318 NET5:89 VDD:754 2.83541e-06 // $x=4.83 $y=0.53 $x2=0 $y2=0
319 NET5:120 VDD:892 1.1076e-05 // $x=73.94 $y=-2.939 $x2=0 $y2=0
320 NET5:1 x1/x1/MP13:s 3.21009e-06 // $x=6.665 $y=0.53 $x2=0 $y2=0
321 NET5:89 x1/x1/MP13:s 8.19458e-07 // $x=4.83 $y=0.53 $x2=0 $y2=0
322 NET5:126 x1/x1/MP13:s 2.30638e-05 // $x=5 $y=0.56 $x2=0 $y2=0
323 x1/x1/MP13:g x1/x1/MP13:s 2.8026e-05 // $x=5.225 $y=-0.265 $x2=0 $y2=0
324 NET5:152 x1/x1/MP13:s 8.85731e-06 // $x=5.225 $y=0.56 $x2=0 $y2=0
325 NET5:1 x1/x1/MP12:s 3.05498e-06 // $x=6.665 $y=0.53 $x2=0 $y2=0
326 NET5:93 x1/x1/MP15:s 8.46168e-07 // $x=7.13 $y=0.53 $x2=0 $y2=0
327 NET5:129 x1/x1/MP15:s 2.42989e-05 // $x=7.3 $y=0.56 $x2=0 $y2=0
328 x1/x1/MP15:g x1/x1/MP15:s 2.83742e-05 // $x=7.525 $y=-0.265 $x2=0 $y2=0
329 NET5:157 x1/x1/MP15:s 8.85731e-06 // $x=7.525 $y=0.56 $x2=0 $y2=0
330 NET5:42 x1/x1/MP11:s 1.29899e-05 // $x=12.142 $y=1.865 $x2=0 $y2=0
331 NET5:15 x1/x2/MP2:s 6.9255e-06 // $x=12.39 $y=-1.614 $x2=0 $y2=0
332 NET5:16 x1/x2/MP2:s 4.56816e-06 // $x=12.387 $y=-1.775 $x2=0 $y2=0
333 NET5:42 x1/x2/MP2:s 1.43936e-06 // $x=12.142 $y=1.865 $x2=0 $y2=0
334 NET5:42 x1/x3/MP2:s 6.81652e-06 // $x=12.142 $y=1.865 $x2=0 $y2=0
335 NET5:54 x1/x6/MP0:s 9.76405e-06 // $x=14.897 $y=0.265 $x2=0 $y2=0
336 x1/x2/MN1:s x1/x6/MP0:s 9.59213e-06 // $x=14.76 $y=-4.855 $x2=0 $y2=0
337 NET5:54 x1/x4/MP0:s 9.76405e-06 // $x=14.897 $y=0.265 $x2=0 $y2=0
338 NET5:120 x5/x7/MP0:s 2.36602e-05 // $x=73.94 $y=-2.939 $x2=0 $y2=0
339 NET5:38 GND:19 5.4625e-05 // $x=6.787 $y=1.865 $x2=13.665 $y2=-2.287
340 NET5:39 GND:19 0.000397865 // $x=12.06 $y=1.947 $x2=13.665 $y2=-2.287
341 NET5:40 GND:19 2.5945e-05 // $x=6.87 $y=1.947 $x2=13.665 $y2=-2.287
342 NET5:147 GND:19 7.87801e-06 // $x=7.525 $y=0.725 $x2=13.665 $y2=-2.287
343 NET5:1 GND:20 4.64251e-05 // $x=6.665 $y=0.53 $x2=12.015 $y2=-2.287
344 NET5:2 GND:20 1.39578e-05 // $x=4.59 $y=0.53 $x2=12.015 $y2=-2.287
345 NET5:61 GND:20 2.66096e-06 // $x=6.825 $y=0.53 $x2=12.015 $y2=-2.287
346 NET5:89 GND:20 3.22158e-06 // $x=4.83 $y=0.53 $x2=12.015 $y2=-2.287
347 NET5:126 GND:20 1.96879e-06 // $x=5 $y=0.56 $x2=12.015 $y2=-2.287
348 NET5:142 GND:20 9.96148e-06 // $x=5.225 $y=0.725 $x2=12.015 $y2=-2.287
349 NET5:39 GND:33 1.48929e-05 // $x=12.06 $y=1.947 $x2=13.745 $y2=-2.905
350 NET5:102 GND:33 4.83331e-06 // $x=14.095 $y=2.425 $x2=13.745 $y2=-2.905
351 NET5:39 GND:34 0.000152224 // $x=12.06 $y=1.947 $x2=14.14 $y2=-2.905
352 NET5:42 GND:34 2.22499e-05 // $x=12.142 $y=1.865 $x2=14.14 $y2=-2.905
353 NET5:19 GND:39 9.5154e-07 // $x=12.475 $y=-3.274 $x2=0 $y2=0
354 NET5:45 GND:39 0.000453075 // $x=73.845 $y=-5.087 $x2=0 $y2=0
355 NET5:46 GND:39 2.04753e-05 // $x=12.54 $y=-5.087 $x2=0 $y2=0
356 NET5:47 GND:39 3.5798e-05 // $x=14.755 $y=-3.32 $x2=0 $y2=0
357 NET5:70 GND:39 2.51559e-06 // $x=12.635 $y=-3.272 $x2=0 $y2=0
358 x1/x2/MN1:s GND:39 2.38697e-06 // $x=14.76 $y=-4.855 $x2=0 $y2=0
359 NET5:44 GND:40 5.62605e-06 // $x=12.457 $y=-3.435 $x2=0 $y2=0
360 NET5:46 GND:40 9.61479e-05 // $x=12.54 $y=-5.087 $x2=0 $y2=0
361 NET5:45 GND:45 0.000439952 // $x=73.845 $y=-5.087 $x2=0 $y2=0
362 NET5:45 GND:46 0.000199295 // $x=73.845 $y=-5.087 $x2=7.64 $y2=-2.14
363 NET5:45 GND:76 0.00013086 // $x=73.845 $y=-5.087 $x2=0 $y2=0
364 NET5:45 GND:81 6.30508e-05 // $x=73.845 $y=-5.087 $x2=0 $y2=0
365 NET5:45 GND:85 0.000439432 // $x=73.845 $y=-5.087 $x2=14.76 $y2=-0.415
366 NET5:45 GND:86 0.00019865 // $x=73.845 $y=-5.087 $x2=0 $y2=0
367 NET5:45 GND:115 0.000498757 // $x=73.845 $y=-5.087 $x2=0 $y2=0
368 NET5:45 GND:116 0.000130325 // $x=73.845 $y=-5.087 $x2=0 $y2=0
369 NET5:45 GND:121 0.000440031 // $x=73.845 $y=-5.087 $x2=0 $y2=0
370 NET5:45 GND:122 0.000198914 // $x=73.845 $y=-5.087 $x2=0 $y2=0
371 NET5:45 GND:151 0.00049864 // $x=73.845 $y=-5.087 $x2=0 $y2=0
372 NET5:45 GND:152 0.000130497 // $x=73.845 $y=-5.087 $x2=0 $y2=0
373 NET5:45 GND:157 0.000440031 // $x=73.845 $y=-5.087 $x2=0 $y2=0
374 NET5:45 GND:158 0.000198914 // $x=73.845 $y=-5.087 $x2=0 $y2=0
375 NET5:45 GND:187 0.000130497 // $x=73.845 $y=-5.087 $x2=0 $y2=0
376 NET5:5 GND:191 1.25118e-05 // $x=73.94 $y=-3.975 $x2=0 $y2=0
377 NET5:45 GND:191 0.000435394 // $x=73.845 $y=-5.087 $x2=0 $y2=0
378 NET5:84 GND:191 3.79834e-06 // $x=73.985 $y=-4.149 $x2=0 $y2=0
379 x5/x7/MN0:d GND:191 1.97012e-06 // $x=73.8 $y=-4.845 $x2=0 $y2=0
380 NET5:45 GND:213 0.000420256 // $x=73.845 $y=-5.087 $x2=0 $y2=0
381 NET5:45 GND:214 2.43993e-05 // $x=73.845 $y=-5.087 $x2=0 $y2=0
382 NET5:1 GND:259 4.79063e-07 // $x=6.665 $y=0.53 $x2=0 $y2=0
383 NET5:93 GND:259 3.65476e-06 // $x=7.13 $y=0.53 $x2=0 $y2=0
384 NET5:142 GND:259 6.45201e-06 // $x=5.225 $y=0.725 $x2=0 $y2=0
385 NET5:89 GND:260 6.11312e-06 // $x=4.83 $y=0.53 $x2=0 $y2=0
386 NET5:147 GND:285 6.45201e-06 // $x=7.525 $y=0.725 $x2=0 $y2=0
387 x1/x2/MN1:s GND:327 1.12678e-05 // $x=14.76 $y=-4.855 $x2=0 $y2=0
388 NET5:102 GND:331 1.2377e-05 // $x=14.095 $y=2.425 $x2=0 $y2=0
389 x1/x2/MN1:s GND:343 1.33082e-06 // $x=14.76 $y=-4.855 $x2=0 $y2=0
390 NET5:102 GND:345 1.28014e-06 // $x=14.095 $y=2.425 $x2=0 $y2=0
391 NET5:5 GND:1002 3.7097e-06 // $x=73.94 $y=-3.975 $x2=0 $y2=0
392 x5/x7/MN0:d GND:1002 1.18303e-05 // $x=73.8 $y=-4.845 $x2=0 $y2=0
393 NET5:1 x1/x1/MN13:s 3.32739e-06 // $x=6.665 $y=0.53 $x2=0 $y2=0
394 NET5:89 x1/x1/MN13:s 8.41169e-07 // $x=4.83 $y=0.53 $x2=0 $y2=0
395 NET5:126 x1/x1/MN13:s 2.58807e-05 // $x=5 $y=0.56 $x2=0 $y2=0
396 NET5:142 x1/x1/MN13:s 2.2553e-05 // $x=5.225 $y=0.725 $x2=0 $y2=0
397 NET5:152 x1/x1/MN13:s 1.18865e-05 // $x=5.225 $y=0.56 $x2=0 $y2=0
398 NET5:38 x1/x1/MN15:s 6.43598e-06 // $x=6.787 $y=1.865 $x2=0 $y2=0
399 NET5:93 x1/x1/MN15:s 9.51643e-07 // $x=7.13 $y=0.53 $x2=0 $y2=0
400 NET5:129 x1/x1/MN15:s 3.03494e-05 // $x=7.3 $y=0.56 $x2=0 $y2=0