*SPEF "2.0"
*DESIGN "SKY130_OSU_RING_OSCILLATOR_MPR2CA_8_B0R1"
*DATE "Thu Nov  2 18:08:03 2023"
*VENDOR "Mentor Graphics Corp."
*PROGRAM "Calibre xRC"
*VERSION "v2023.2_27.15"
*DESIGN_FLOW "extraction"
*DIVIDER /
*DELIMITER :
*BUS_DELIMITER []
*T_UNIT 1 NS
*C_UNIT 1 PF
*R_UNIT 1 OHM
*L_UNIT 1 HENRY



// CIRCUIT TEMPERATURE 30C
// NOMINAL TEMPERATURE 30C

*PORTS 
 X5_Y1 B
 VDD B
 X4_Y1 B
 X3_Y1 B
 X2_Y1 B
 X1_Y1 B
 S5 B
 S4 B
 S3 B
 S2 B
 S1 B
 GND B

*D_NET GND 0.0642514
*CONN
*P GND B 
*I x1/x1/MN16:g I 
*I x1/x1/MN12:g I 
*I x2/x1/MN16:g I 
*I x2/x1/MN12:g I 
*I x3/x1/MN16:g I 
*I x3/x1/MN12:g I 
*I x4/x1/MN16:g I 
*I x4/x1/MN12:g I 
*I x5/x1/MN16:g I 
*I x5/x1/MN12:g I 
*I x1/x1/MP16:g I 
*I x1/x1/MP11:g I 
*I x2/x1/MP16:g I 
*I x2/x1/MP11:g I 
*I x3/x1/MP16:g I 
*I x3/x1/MP11:g I 
*I x4/x1/MP16:g I 
*I x4/x1/MP11:g I 
*I x5/x1/MP16:g I 
*I x5/x1/MP11:g I 
*I x1/x8/MN2:s B 
*I x1/x8/MN0:s B 
*I x1/x1/MN2:s B 
*I x1/x1/MN17:s B 
*I x1/x1/MN16:s B 
*I x1/x1/MN0:s B 
*I x1/x1/MN4:s B 
*I x1/x1/MN12:s B 
*I x1/x1/MN8:s B 
*I x1/x1/MN10:s B 
*I x1/x1/MN14:s B 
*I x1/x1/MN6:s B 
*I x1/x1/MN5:s B 
*I x1/x3/MN2:s B 
*I x1/x2/MN2:s B 
*I x1/x4/MN0:s B 
*I x1/x6/MN0:s B 
*I x1/x5/MN0:s B 
*I x1/x7/MN0:s B 
*I x2/x8/MN2:s B 
*I x2/x8/MN0:s B 
*I x2/x1/MN2:s B 
*I x2/x1/MN17:s B 
*I x2/x1/MN16:s B 
*I x2/x1/MN0:s B 
*I x2/x1/MN4:s B 
*I x2/x1/MN12:s B 
*I x2/x1/MN8:s B 
*I x2/x1/MN10:s B 
*I x2/x1/MN14:s B 
*I x2/x1/MN6:s B 
*I x2/x1/MN5:s B 
*I x2/x3/MN2:s B 
*I x2/x2/MN2:s B 
*I x2/x4/MN0:s B 
*I x2/x6/MN0:s B 
*I x2/x5/MN0:s B 
*I x2/x7/MN0:s B 
*I x3/x8/MN2:s B 
*I x3/x8/MN0:s B 
*I x3/x1/MN2:s B 
*I x3/x1/MN17:s B 
*I x3/x1/MN16:s B 
*I x3/x1/MN0:s B 
*I x3/x1/MN4:s B 
*I x3/x1/MN12:s B 
*I x3/x1/MN8:s B 
*I x3/x1/MN10:s B 
*I x3/x1/MN14:s B 
*I x3/x1/MN6:s B 
*I x3/x1/MN5:s B 
*I x3/x3/MN2:s B 
*I x3/x2/MN2:s B 
*I x3/x4/MN0:s B 
*I x3/x6/MN0:s B 
*I x3/x5/MN0:s B 
*I x3/x7/MN0:s B 
*I x4/x8/MN2:s B 
*I x4/x8/MN0:s B 
*I x4/x1/MN2:s B 
*I x4/x1/MN17:s B 
*I x4/x1/MN16:s B 
*I x4/x1/MN0:s B 
*I x4/x1/MN4:s B 
*I x4/x1/MN12:s B 
*I x4/x1/MN8:s B 
*I x4/x1/MN10:s B 
*I x4/x1/MN14:s B 
*I x4/x1/MN6:s B 
*I x4/x1/MN5:s B 
*I x4/x3/MN2:s B 
*I x4/x2/MN2:s B 
*I x4/x4/MN0:s B 
*I x4/x6/MN0:s B 
*I x4/x5/MN0:s B 
*I x4/x7/MN0:s B 
*I x5/x8/MN2:s B 
*I x5/x8/MN0:s B 
*I x5/x1/MN2:s B 
*I x5/x1/MN17:s B 
*I x5/x1/MN16:s B 
*I x5/x1/MN0:s B 
*I x5/x1/MN4:s B 
*I x5/x1/MN12:s B 
*I x5/x1/MN8:s B 
*I x5/x1/MN10:s B 
*I x5/x1/MN14:s B 
*I x5/x1/MN6:s B 
*I x5/x1/MN5:s B 
*I x5/x3/MN2:s B 
*I x5/x2/MN2:s B 
*I x5/x4/MN0:s B 
*I x5/x6/MN0:s B 
*I x5/x5/MN0:s B 
*I x5/x7/MN0:s B 
*I x1/x8/MP1:s B 
*I x2/x8/MP1:s B 
*I x3/x8/MP1:s B 
*I x4/x8/MP1:s B 
*I x5/x8/MP1:s B 

*CAP
0 GND:25 X1/NET7:1 5.80533e-06 // $x=6.11 $y=6.64 $x2=7.13 $y2=4.94
1 GND:51 X1/NET7:1 1.46865e-06 // $x=7.39 $y=6.64 $x2=7.13 $y2=4.94
2 GND:308 X1/NET7:1 8.64255e-06 // $x=5.25 $y=5.96 $x2=7.13 $y2=4.94
3 GND:312 X1/NET7:1 8.79021e-06 // $x=6.27 $y=6.64 $x2=7.13 $y2=4.94
4 GND:494 X1/NET7:1 2.26178e-07 // $x=5.32 $y=5.99 $x2=7.13 $y2=4.94
5 x1/x1/MP16:g X1/NET7:1 3.00764e-06 // $x=5.41 $y=5.085 $x2=7.13 $y2=4.94
6 GND:20 X1/NET7:2 4.41668e-06 // $x=4.705 $y=7.895 $x2=4.715 $y2=4.94
7 x1/x1/MP11:g X1/NET7:7 8.16203e-06 // $x=7.45 $y=5.165 $x2=7.29 $y2=4.94
8 GND:27 X1/NET7:10 1.76118e-06 // $x=9.645 $y=0.975 $x2=7.29 $y2=2.56
9 x1/x1/MP11:g X1/NET7:18 2.26183e-06 // $x=7.45 $y=5.165 $x2=7.29 $y2=4.94
10 x1/x1/MP11:g X1/NET7:19 9.45797e-07 // $x=7.45 $y=5.165 $x2=7.3 $y2=4.755
11 GND:24 X1/NET7:25 6.00515e-06 // $x=5.25 $y=6.57 $x2=4.39 $y2=6.605
12 x1/x1/MP11:g x1/x1/MP7:g 2.60287e-06 // $x=7.45 $y=5.165 $x2=7.41 $y2=3.42
13 GND:27 X1/NET7:52 3.70282e-06 // $x=9.645 $y=0.975 $x2=7.275 $y2=2.44
14 GND:506 X1/NET7:52 4.84168e-06 // $x=8.475 $y=0.897 $x2=7.275 $y2=2.44
15 GND:20 x1/x1/MN17:d 2.31669e-05 // $x=4.705 $y=7.895 $x2=4.515 $y2=6.265
16 GND:26 x1/x1/MN17:d 1.69959e-06 // $x=5.32 $y=6.64 $x2=4.515 $y2=6.265
17 GND:497 x1/x1/MN17:d 5.40087e-05 // $x=5.245 $y=7.972 $x2=4.515 $y2=6.265
18 x1/x1/MN17:s x1/x1/MN17:d 2.68291e-05 // $x=4.945 $y=6.265 $x2=4.515 $y2=6.265
19 GND:62 X1/NET1:3 6.00593e-06 // $x=10.81 $y=0.152 $x2=4.57 $y2=4.94
20 GND:1097 X1/NET1:3 1.14842e-06 // $x=10.81 $y=0.897 $x2=4.57 $y2=4.94
21 GND:62 X1/NET1:4 4.15668e-06 // $x=10.81 $y=0.152 $x2=4.57 $y2=4.94
22 GND:27 X1/NET1:11 1.51881e-05 // $x=9.645 $y=0.975 $x2=7.29 $y2=2.56
23 GND:61 X1/NET1:17 1.52424e-06 // $x=20.05 $y=0.152 $x2=7.3 $y2=4.94
24 x1/x1/MN5:s X1/NET1:17 6.2639e-06 // $x=10.205 $y=1.945 $x2=7.3 $y2=4.94
25 GND:61 X1/NET1:24 1.91776e-05 // $x=20.05 $y=0.152 $x2=4.39 $y2=5.235
26 x1/x3/MN2:s X1/NET1:24 1.11049e-06 // $x=11.845 $y=0.575 $x2=4.39 $y2=5.235
27 x1/x1/MN5:s X1/NET1:37 4.49752e-06 // $x=10.205 $y=1.945 $x2=4.495 $y2=5.235
28 GND:62 X1/NET1:47 3.94078e-06 // $x=10.81 $y=0.152 $x2=7.41 $y2=2.965
29 GND:61 X1/NET1:49 5.95436e-06 // $x=20.05 $y=0.152 $x2=0 $y2=0
30 GND:62 X1/NET1:69 1.14049e-06 // $x=10.81 $y=0.152 $x2=0 $y2=0
31 GND:55 X1/NET1:82 4.83331e-06 // $x=18.03 $y=8.727 $x2=0 $y2=0
32 GND:554 X1/NET1:82 1.21387e-05 // $x=14.63 $y=8.727 $x2=0 $y2=0
33 GND:568 X1/NET1:82 1.28014e-06 // $x=15.62 $y=8.727 $x2=0 $y2=0
34 x1/x2/MN2:s X1/NET1:82 1.39509e-06 // $x=11.845 $y=7.755 $x2=0 $y2=0
35 GND:62 x1/x1/MN6:d 1.11839e-05 // $x=10.81 $y=0.152 $x2=0 $y2=0
36 GND:1097 x1/x1/MN6:d 3.23709e-05 // $x=10.81 $y=0.897 $x2=0 $y2=0
37 x1/x1/MN6:s x1/x1/MN6:d 4.98857e-05 // $x=9.375 $y=1.945 $x2=0 $y2=0
38 x1/x1/MN5:s x1/x1/MN6:d 4.9569e-05 // $x=10.205 $y=1.945 $x2=0 $y2=0
39 GND:61 x1/x3/MN1:s 2.18283e-06 // $x=20.05 $y=0.152 $x2=0 $y2=0
40 GND:550 x1/x3/MN1:s 1.1298e-05 // $x=14.63 $y=0.152 $x2=0 $y2=0
41 GND:566 x1/x3/MN1:s 1.33082e-06 // $x=15.62 $y=0.152 $x2=0 $y2=0
42 x1/x4/MN0:s x1/x3/MN1:s 8.67204e-06 // $x=14.59 $y=0.575 $x2=0 $y2=0
43 GND:28 X1/NET9:1 5.25252e-05 // $x=5.67 $y=0.975 $x2=7.13 $y2=4.94
44 GND:480 X1/NET9:1 6.37335e-07 // $x=6.095 $y=0.897 $x2=7.13 $y2=4.94
45 x1/x1/MN2:s X1/NET9:1 2.74554e-07 // $x=3.855 $y=2.175 $x2=7.13 $y2=4.94
46 GND:28 X1/NET9:2 9.84705e-06 // $x=5.67 $y=0.975 $x2=4.715 $y2=4.94
47 x1/x1/MN2:s X1/NET9:2 3.06011e-06 // $x=3.855 $y=2.175 $x2=4.715 $y2=4.94
48 GND:27 X1/NET9:6 1.33546e-05 // $x=9.645 $y=0.975 $x2=7.29 $y2=4.94
49 GND:1097 X1/NET9:6 3.43174e-07 // $x=10.81 $y=0.897 $x2=7.29 $y2=4.94
50 x1/x1/MN8:s X1/NET9:6 2.76216e-06 // $x=8.205 $y=1.945 $x2=7.29 $y2=4.94
51 GND:27 X1/NET9:13 1.01359e-05 // $x=9.645 $y=0.975 $x2=7.29 $y2=4.755
52 x1/x1/MN8:s X1/NET9:13 2.54752e-06 // $x=8.205 $y=1.945 $x2=7.29 $y2=4.755
53 GND:27 X1/NET9:16 3.55186e-05 // $x=9.645 $y=0.975 $x2=0 $y2=0
54 GND:1097 X1/NET9:16 1.18268e-06 // $x=10.81 $y=0.897 $x2=0 $y2=0
55 x1/x1/MN8:s X1/NET9:16 2.49373e-06 // $x=8.205 $y=1.945 $x2=0 $y2=0
56 GND:28 X1/NET9:27 2.3781e-06 // $x=5.67 $y=0.975 $x2=7.2 $y2=2.64
57 GND:480 X1/NET9:27 3.92222e-07 // $x=6.095 $y=0.897 $x2=7.2 $y2=2.64
58 x1/x1/MN2:s X1/NET9:27 2.58197e-05 // $x=3.855 $y=2.175 $x2=7.2 $y2=2.64
59 GND:27 X1/NET9:42 5.36093e-06 // $x=9.645 $y=0.975 $x2=0 $y2=0
60 GND:1097 X1/NET9:42 2.40924e-06 // $x=10.81 $y=0.897 $x2=0 $y2=0
61 x1/x1/MN6:s X1/NET9:42 2.04719e-05 // $x=9.375 $y=1.945 $x2=0 $y2=0
62 x1/x1/MN2:s X1/NET9:55 3.26826e-06 // $x=3.855 $y=2.175 $x2=0 $y2=0
63 GND:27 X1/NET9:61 2.0437e-06 // $x=9.645 $y=0.975 $x2=0 $y2=0
64 GND:62 X1/NET9:61 5.89587e-06 // $x=10.81 $y=0.152 $x2=0 $y2=0
65 GND:1097 X1/NET9:61 6.72104e-06 // $x=10.81 $y=0.897 $x2=0 $y2=0
66 x1/x1/MN6:s X1/NET9:61 1.33952e-05 // $x=9.375 $y=1.945 $x2=0 $y2=0
67 GND:28 X1/NET9:67 6.55193e-07 // $x=5.67 $y=0.975 $x2=0 $y2=0
68 x1/x1/MN2:s X1/NET9:67 8.67027e-06 // $x=3.855 $y=2.175 $x2=0 $y2=0
69 GND:28 X1/NET9:68 6.7388e-06 // $x=5.67 $y=0.975 $x2=0 $y2=0
70 GND:480 X1/NET9:68 7.44696e-06 // $x=6.095 $y=0.897 $x2=0 $y2=0
71 x1/x1/MN2:s X1/NET9:68 1.52379e-05 // $x=3.855 $y=2.175 $x2=0 $y2=0
72 GND:27 X1/NET9:73 5.39796e-07 // $x=9.645 $y=0.975 $x2=0 $y2=0
73 x1/x1/MN6:s X1/NET9:73 1.03408e-05 // $x=9.375 $y=1.945 $x2=0 $y2=0
74 GND:27 x1/x1/MN10:d 6.17082e-06 // $x=9.645 $y=0.975 $x2=0 $y2=0
75 GND:1097 x1/x1/MN10:d 3.31052e-05 // $x=10.81 $y=0.897 $x2=0 $y2=0
76 x1/x1/MN8:s x1/x1/MN10:d 3.01382e-05 // $x=8.205 $y=1.945 $x2=0 $y2=0
77 x1/x1/MN6:s x1/x1/MN10:d 4.13156e-05 // $x=9.375 $y=1.945 $x2=0 $y2=0
78 GND:10 X1/NET4:2 2.10081e-05 // $x=1.53 $y=8.575 $x2=4.715 $y2=4.94
79 GND:20 X1/NET4:2 4.75353e-06 // $x=4.705 $y=7.895 $x2=4.715 $y2=4.94
80 GND:475 X1/NET4:2 6.31462e-06 // $x=1.75 $y=6.4 $x2=4.715 $y2=4.94
81 GND:28 X1/NET4:6 4.37983e-07 // $x=5.67 $y=0.975 $x2=7.29 $y2=4.94
82 GND:506 X1/NET4:7 3.92999e-06 // $x=8.475 $y=0.897 $x2=7.29 $y2=4.94
83 GND:1090 X1/NET4:7 9.62391e-07 // $x=6.25 $y=1.71 $x2=7.29 $y2=4.94
84 x1/x1/MN0:s X1/NET4:7 1.52275e-05 // $x=5.965 $y=1.975 $x2=7.29 $y2=4.94
85 GND:27 X1/NET4:8 0.000194093 // $x=9.645 $y=0.975 $x2=0 $y2=0
86 GND:51 X1/NET4:9 1.54316e-05 // $x=7.39 $y=6.64 $x2=0 $y2=0
87 GND:312 X1/NET4:9 1.18449e-06 // $x=6.27 $y=6.64 $x2=0 $y2=0
88 GND:308 X1/NET4:10 9.11272e-06 // $x=5.25 $y=5.96 $x2=7.29 $y2=2.56
89 GND:312 X1/NET4:10 2.89422e-05 // $x=6.27 $y=6.64 $x2=7.29 $y2=2.56
90 GND:494 X1/NET4:10 2.70629e-07 // $x=5.32 $y=5.99 $x2=7.29 $y2=2.56
91 GND:41 X1/NET4:13 1.13851e-05 // $x=9.635 $y=7.895 $x2=7.29 $y2=4.755
92 GND:51 X1/NET4:13 6.45906e-06 // $x=7.39 $y=6.64 $x2=7.29 $y2=4.755
93 GND:316 X1/NET4:13 3.4332e-05 // $x=7.46 $y=5.96 $x2=7.29 $y2=4.755
94 GND:517 X1/NET4:13 6.20383e-06 // $x=7.46 $y=5.96 $x2=7.29 $y2=4.755
95 x1/x1/MP11:g X1/NET4:13 1.41918e-06 // $x=7.45 $y=5.165 $x2=7.29 $y2=4.755
96 GND:1348 X1/NET4:13 6.68738e-07 // $x=7.45 $y=5.99 $x2=7.29 $y2=4.755
97 GND:41 X1/NET4:16 6.94334e-06 // $x=9.635 $y=7.895 $x2=0 $y2=0
98 GND:54 X1/NET4:16 1.48437e-06 // $x=7.46 $y=6.57 $x2=0 $y2=0
99 GND:316 X1/NET4:16 2.75916e-05 // $x=7.46 $y=5.96 $x2=0 $y2=0
100 GND:517 X1/NET4:16 4.85715e-06 // $x=7.46 $y=5.96 $x2=0 $y2=0
101 GND:10 X1/NET4:25 2.4947e-05 // $x=1.53 $y=8.575 $x2=4.39 $y2=6.605
102 GND:15 X1/NET4:25 5.77359e-07 // $x=3.425 $y=8.727 $x2=4.39 $y2=6.605
103 GND:20 X1/NET4:25 2.56681e-06 // $x=4.705 $y=7.895 $x2=4.39 $y2=6.605
104 GND:462 X1/NET4:25 5.60271e-07 // $x=3.425 $y=8.727 $x2=4.39 $y2=6.605
105 GND:475 X1/NET4:25 4.1889e-06 // $x=1.75 $y=6.4 $x2=4.39 $y2=6.605
106 GND:10 X1/NET4:30 1.74617e-05 // $x=1.53 $y=8.575 $x2=7.29 $y2=2.56
107 GND:15 X1/NET4:30 1.35661e-05 // $x=3.425 $y=8.727 $x2=7.29 $y2=2.56
108 GND:20 X1/NET4:30 1.22654e-06 // $x=4.705 $y=7.895 $x2=7.29 $y2=2.56
109 GND:462 X1/NET4:30 3.26999e-06 // $x=3.425 $y=8.727 $x2=7.29 $y2=2.56
110 GND:475 X1/NET4:30 2.73941e-06 // $x=1.75 $y=6.4 $x2=7.29 $y2=2.56
111 GND:27 X1/NET4:36 3.69738e-06 // $x=9.645 $y=0.975 $x2=4.57 $y2=4.94
112 GND:51 X1/NET4:42 1.68921e-05 // $x=7.39 $y=6.64 $x2=0 $y2=0
113 GND:54 X1/NET4:42 1.63688e-06 // $x=7.46 $y=6.57 $x2=0 $y2=0
114 GND:316 X1/NET4:42 2.82145e-05 // $x=7.46 $y=5.96 $x2=0 $y2=0
115 GND:517 X1/NET4:42 1.59306e-06 // $x=7.46 $y=5.96 $x2=0 $y2=0
116 GND:27 X1/NET4:47 4.98491e-05 // $x=9.645 $y=0.975 $x2=7.41 $y2=2.965
117 GND:506 X1/NET4:47 1.16991e-06 // $x=8.475 $y=0.897 $x2=7.41 $y2=2.965
118 GND:1097 X1/NET4:47 1.2538e-06 // $x=10.81 $y=0.897 $x2=7.41 $y2=2.965
119 x1/x1/MN8:s X1/NET4:47 3.7818e-06 // $x=8.205 $y=1.945 $x2=7.41 $y2=2.965
120 GND:41 X1/NET4:54 8.57298e-06 // $x=9.635 $y=7.895 $x2=4.515 $y2=6.265
121 GND:41 X1/NET4:57 1.34492e-05 // $x=9.635 $y=7.895 $x2=0 $y2=0
122 GND:539 X1/NET4:57 3.38567e-07 // $x=10.625 $y=8.727 $x2=0 $y2=0
123 x1/x1/MN14:s X1/NET4:57 3.13366e-06 // $x=9.305 $y=6.265 $x2=0 $y2=0
124 GND:10 X1/NET4:60 1.06413e-05 // $x=1.53 $y=8.575 $x2=0 $y2=0
125 GND:15 X1/NET4:60 4.9394e-06 // $x=3.425 $y=8.727 $x2=0 $y2=0
126 GND:41 X1/NET4:72 1.51507e-05 // $x=9.635 $y=7.895 $x2=0 $y2=0
127 GND:41 X1/NET4:73 2.62959e-06 // $x=9.635 $y=7.895 $x2=0 $y2=0
128 GND:24 X1/NET4:75 2.49566e-06 // $x=5.25 $y=6.57 $x2=0 $y2=0
129 GND:51 X1/NET4:75 4.3228e-06 // $x=7.39 $y=6.64 $x2=0 $y2=0
130 GND:54 X1/NET4:75 2.30083e-06 // $x=7.46 $y=6.57 $x2=0 $y2=0
131 GND:308 X1/NET4:75 2.59287e-06 // $x=5.25 $y=5.96 $x2=0 $y2=0
132 GND:41 X1/NET4:79 8.56324e-06 // $x=9.635 $y=7.895 $x2=0 $y2=0
133 GND:54 X1/NET4:79 2.46965e-06 // $x=7.46 $y=6.57 $x2=0 $y2=0
134 GND:517 X1/NET4:79 5.36119e-07 // $x=7.46 $y=5.96 $x2=0 $y2=0
135 x1/x1/MP11:g X1/NET4:79 2.12242e-07 // $x=7.45 $y=5.165 $x2=0 $y2=0
136 x1/x1/MP11:g X1/NET4:80 1.723e-06 // $x=7.45 $y=5.165 $x2=0 $y2=0
137 GND:27 X1/NET4:84 1.26412e-05 // $x=9.645 $y=0.975 $x2=0 $y2=0
138 x1/x1/MN8:s X1/NET4:84 5.33444e-07 // $x=8.205 $y=1.945 $x2=0 $y2=0
139 GND:41 X1/NET4:92 7.70363e-06 // $x=9.635 $y=7.895 $x2=0 $y2=0
140 x1/x1/MN14:s X1/NET4:92 1.79675e-06 // $x=9.305 $y=6.265 $x2=0 $y2=0
141 GND:15 X1/NET4:94 4.97885e-06 // $x=3.425 $y=8.727 $x2=0 $y2=0
142 GND:19 X1/NET4:98 3.01738e-05 // $x=6.145 $y=7.895 $x2=0 $y2=0
143 GND:20 X1/NET4:98 2.83144e-05 // $x=4.705 $y=7.895 $x2=0 $y2=0
144 GND:41 X1/NET4:98 1.91778e-05 // $x=9.635 $y=7.895 $x2=0 $y2=0
145 GND:312 X1/NET4:98 3.49552e-05 // $x=6.27 $y=6.64 $x2=0 $y2=0
146 GND:314 X1/NET4:98 5.02373e-06 // $x=6.272 $y=7.895 $x2=0 $y2=0
147 GND:24 X1/NET4:105 7.01677e-06 // $x=5.25 $y=6.57 $x2=0 $y2=0
148 GND:40 X1/NET4:105 2.41989e-06 // $x=6.272 $y=6.91 $x2=0 $y2=0
149 GND:41 X1/NET4:105 9.68072e-05 // $x=9.635 $y=7.895 $x2=0 $y2=0
150 GND:51 X1/NET4:105 8.35002e-06 // $x=7.39 $y=6.64 $x2=0 $y2=0
151 GND:54 X1/NET4:105 1.30391e-05 // $x=7.46 $y=6.57 $x2=0 $y2=0
152 GND:312 X1/NET4:105 6.77006e-05 // $x=6.27 $y=6.64 $x2=0 $y2=0
153 x1/x1/MN12:s X1/NET4:105 2.36822e-06 // $x=7.075 $y=6.265 $x2=0 $y2=0
154 GND:41 X1/NET4:106 1.77709e-05 // $x=9.635 $y=7.895 $x2=0 $y2=0
155 GND:51 X1/NET4:106 5.94553e-06 // $x=7.39 $y=6.64 $x2=0 $y2=0
156 GND:54 X1/NET4:106 4.13802e-06 // $x=7.46 $y=6.57 $x2=0 $y2=0
157 GND:316 X1/NET4:106 1.75627e-06 // $x=7.46 $y=5.96 $x2=0 $y2=0
158 GND:517 X1/NET4:106 2.34919e-06 // $x=7.46 $y=5.96 $x2=0 $y2=0
159 x1/x1/MP11:g X1/NET4:106 3.3857e-07 // $x=7.45 $y=5.165 $x2=0 $y2=0
160 GND:1348 X1/NET4:106 8.47235e-07 // $x=7.45 $y=5.99 $x2=0 $y2=0
161 GND:24 X1/NET4:116 1.31394e-06 // $x=5.25 $y=6.57 $x2=0 $y2=0
162 GND:51 X1/NET4:116 7.23994e-06 // $x=7.39 $y=6.64 $x2=0 $y2=0
163 GND:54 X1/NET4:116 3.68142e-07 // $x=7.46 $y=6.57 $x2=0 $y2=0
164 GND:312 X1/NET4:116 4.0135e-05 // $x=6.27 $y=6.64 $x2=0 $y2=0
165 GND:10 X1/NET4:128 7.43546e-07 // $x=1.53 $y=8.575 $x2=0 $y2=0
166 GND:15 X1/NET4:128 2.15467e-06 // $x=3.425 $y=8.727 $x2=0 $y2=0
167 GND:462 X1/NET4:128 1.39846e-05 // $x=3.425 $y=8.727 $x2=0 $y2=0
168 GND:473 X1/NET4:128 1.62563e-05 // $x=1.75 $y=7.855 $x2=0 $y2=0
169 GND:475 X1/NET4:128 1.74627e-05 // $x=1.75 $y=6.4 $x2=0 $y2=0
170 GND:25 X1/NET4:141 1.83426e-06 // $x=6.11 $y=6.64 $x2=0 $y2=0
171 GND:494 X1/NET4:141 2.38551e-05 // $x=5.32 $y=5.99 $x2=0 $y2=0
172 GND:496 X1/NET4:141 1.89291e-06 // $x=7.065 $y=7.972 $x2=0 $y2=0
173 GND:1344 X1/NET4:141 4.24929e-06 // $x=5.32 $y=5.99 $x2=0 $y2=0
174 GND:27 X1/NET4:156 4.60246e-06 // $x=9.645 $y=0.975 $x2=0 $y2=0
175 GND:506 X1/NET4:156 2.28057e-05 // $x=8.475 $y=0.897 $x2=0 $y2=0
176 x1/x1/MN8:s X1/NET4:156 2.31827e-05 // $x=8.205 $y=1.945 $x2=0 $y2=0
177 GND:41 X1/NET4:164 1.63145e-06 // $x=9.635 $y=7.895 $x2=0 $y2=0
178 GND:539 X1/NET4:164 3.19401e-07 // $x=10.625 $y=8.727 $x2=0 $y2=0
179 x1/x1/MN14:s X1/NET4:164 4.17283e-05 // $x=9.305 $y=6.265 $x2=0 $y2=0
180 GND:27 X1/NET4:167 7.2327e-06 // $x=9.645 $y=0.975 $x2=0 $y2=0
181 GND:480 X1/NET4:167 2.018e-05 // $x=6.095 $y=0.897 $x2=0 $y2=0
182 x1/x1/MN0:s X1/NET4:167 1.74182e-05 // $x=5.965 $y=1.975 $x2=0 $y2=0
183 GND:308 X1/NET4:173 2.70629e-07 // $x=5.25 $y=5.96 $x2=0 $y2=0
184 GND:312 X1/NET4:173 2.30887e-06 // $x=6.27 $y=6.64 $x2=0 $y2=0
185 GND:494 X1/NET4:173 3.22645e-07 // $x=5.32 $y=5.99 $x2=0 $y2=0
186 GND:496 X1/NET4:173 2.60719e-07 // $x=7.065 $y=7.972 $x2=0 $y2=0
187 x1/x1/MP11:g X1/NET4:173 1.70899e-06 // $x=7.45 $y=5.165 $x2=0 $y2=0
188 GND:41 X1/NET4:178 2.3418e-07 // $x=9.635 $y=7.895 $x2=0 $y2=0
189 GND:54 X1/NET4:178 6.29845e-06 // $x=7.46 $y=6.57 $x2=0 $y2=0
190 GND:316 X1/NET4:178 1.34719e-06 // $x=7.46 $y=5.96 $x2=0 $y2=0
191 GND:517 X1/NET4:178 2.69729e-05 // $x=7.46 $y=5.96 $x2=0 $y2=0
192 GND:1348 X1/NET4:178 1.71122e-06 // $x=7.45 $y=5.99 $x2=0 $y2=0
193 GND:506 X1/NET4:182 2.11938e-06 // $x=8.475 $y=0.897 $x2=0 $y2=0
194 x1/x1/MN6:s X1/NET4:182 4.3989e-07 // $x=9.375 $y=1.945 $x2=0 $y2=0
195 GND:41 X1/NET4:190 1.80321e-06 // $x=9.635 $y=7.895 $x2=0 $y2=0
196 GND:539 X1/NET4:190 3.65399e-07 // $x=10.625 $y=8.727 $x2=0 $y2=0
197 GND:28 x1/x1/MN1:g 4.07528e-06 // $x=5.67 $y=0.975 $x2=0 $y2=0
198 GND:480 x1/x1/MN1:g 5.105e-06 // $x=6.095 $y=0.897 $x2=0 $y2=0
199 GND:19 x1/x1/MN15:g 5.48865e-06 // $x=6.145 $y=7.895 $x2=0 $y2=0
200 GND:25 x1/x1/MN15:g 3.70843e-06 // $x=6.11 $y=6.64 $x2=0 $y2=0
201 GND:40 x1/x1/MN15:g 2.48193e-06 // $x=6.272 $y=6.91 $x2=0 $y2=0
202 GND:312 x1/x1/MN15:g 8.8546e-07 // $x=6.27 $y=6.64 $x2=0 $y2=0
203 GND:496 x1/x1/MN15:g 7.05816e-06 // $x=7.065 $y=7.972 $x2=0 $y2=0
204 x1/x1/MN16:g x1/x1/MN15:g 4.14789e-05 // $x=5.41 $y=6.565 $x2=0 $y2=0
205 x1/x1/MN12:s x1/x1/MN15:g 1.4467e-06 // $x=7.075 $y=6.265 $x2=0 $y2=0
206 GND:27 x1/x1/MN0:g 3.06294e-06 // $x=9.645 $y=0.975 $x2=0 $y2=0
207 GND:480 x1/x1/MN0:g 5.02478e-06 // $x=6.095 $y=0.897 $x2=0 $y2=0
208 x1/x1/MN0:s x1/x1/MN0:g 7.1903e-06 // $x=5.965 $y=1.975 $x2=0 $y2=0
209 GND:27 x1/x1/MN9:g 2.55865e-06 // $x=9.645 $y=0.975 $x2=0 $y2=0
210 GND:506 x1/x1/MN9:g 4.84168e-06 // $x=8.475 $y=0.897 $x2=0 $y2=0
211 x1/x1/MP16:g x1/x1/MP15:g 4.14789e-05 // $x=5.41 $y=5.085 $x2=0 $y2=0
212 x1/x1/MP11:g x1/x1/MP14:g 7.61334e-05 // $x=7.45 $y=5.165 $x2=0 $y2=0
213 x1/x1/MP11:g x1/x1/MP12:g 2.23824e-06 // $x=7.45 $y=5.165 $x2=0 $y2=0
214 GND:27 X1/NET4:237 3.87532e-06 // $x=9.645 $y=0.975 $x2=0 $y2=0
215 GND:506 X1/NET4:237 5.28127e-06 // $x=8.475 $y=0.897 $x2=0 $y2=0
216 x1/x1/MN8:s X1/NET4:237 3.65258e-06 // $x=8.205 $y=1.945 $x2=0 $y2=0
217 GND:506 X1/NET4:239 1.60769e-06 // $x=8.475 $y=0.897 $x2=0 $y2=0
218 GND:28 X1/NET4:253 8.53314e-07 // $x=5.67 $y=0.975 $x2=0 $y2=0
219 GND:480 X1/NET4:253 7.00224e-07 // $x=6.095 $y=0.897 $x2=0 $y2=0
220 x1/x1/MP16:g X1/NET4:255 3.04618e-06 // $x=5.41 $y=5.085 $x2=0 $y2=0
221 GND:24 X1/NET4:261 6.51583e-07 // $x=5.25 $y=6.57 $x2=0 $y2=0
222 GND:494 X1/NET4:261 1.07159e-06 // $x=5.32 $y=5.99 $x2=0 $y2=0
223 GND:1344 X1/NET4:261 4.53036e-05 // $x=5.32 $y=5.99 $x2=0 $y2=0
224 GND:1348 X1/NET4:261 3.84657e-06 // $x=7.45 $y=5.99 $x2=0 $y2=0
225 GND:480 X1/NET4:264 8.91887e-07 // $x=6.095 $y=0.897 $x2=0 $y2=0
226 GND:506 X1/NET4:268 2.41879e-07 // $x=8.475 $y=0.897 $x2=0 $y2=0
227 GND:517 X1/NET4:274 1.11137e-05 // $x=7.46 $y=5.96 $x2=0 $y2=0
228 GND:1348 X1/NET4:274 5.70518e-05 // $x=7.45 $y=5.99 $x2=0 $y2=0
229 GND:41 X1/NET4:276 4.57469e-06 // $x=9.635 $y=7.895 $x2=0 $y2=0
230 GND:539 X1/NET4:276 4.84368e-06 // $x=10.625 $y=8.727 $x2=0 $y2=0
231 GND:1349 X1/NET4:276 5.02342e-05 // $x=7.45 $y=6.155 $x2=0 $y2=0
232 GND:41 X1/NET4:282 4.32826e-06 // $x=9.635 $y=7.895 $x2=0 $y2=0
233 GND:539 X1/NET4:282 5.40189e-06 // $x=10.625 $y=8.727 $x2=0 $y2=0
234 GND:1349 X1/NET4:282 1.08017e-06 // $x=7.45 $y=6.155 $x2=0 $y2=0
235 x1/x1/MN14:s X1/NET4:282 6.14848e-06 // $x=9.305 $y=6.265 $x2=0 $y2=0
236 x1/x1/MN14:s X1/NET4:284 2.59929e-06 // $x=9.305 $y=6.265 $x2=0 $y2=0
237 x1/x1/MN14:s X1/NET4:286 2.97796e-05 // $x=9.305 $y=6.265 $x2=0 $y2=0
238 GND:10 x1/x8/MP1:d 7.43546e-07 // $x=1.53 $y=8.575 $x2=0 $y2=0
239 GND:13 x1/x8/MP1:d 7.27515e-06 // $x=1.75 $y=6.4 $x2=0 $y2=0
240 GND:475 x1/x8/MP1:d 4.47144e-06 // $x=1.75 $y=6.4 $x2=0 $y2=0
241 GND:1080 x1/x8/MP1:d 6.68548e-05 // $x=1.722 $y=6.245 $x2=0 $y2=0
242 x1/x8/MP1:s x1/x8/MP1:d 5.01459e-05 // $x=1.57 $y=5.015 $x2=0 $y2=0
243 GND:83 X2/NET7:1 5.80533e-06 // $x=22.695 $y=6.64 $x2=7.13 $y2=4.94
244 GND:109 X2/NET7:1 1.46865e-06 // $x=23.975 $y=6.64 $x2=7.13 $y2=4.94
245 GND:331 X2/NET7:1 8.64255e-06 // $x=21.835 $y=5.96 $x2=7.13 $y2=4.94
246 GND:335 X2/NET7:1 8.79021e-06 // $x=22.855 $y=6.64 $x2=7.13 $y2=4.94
247 GND:618 X2/NET7:1 2.26178e-07 // $x=21.905 $y=5.99 $x2=7.13 $y2=4.94
248 x2/x1/MP16:g X2/NET7:1 3.00764e-06 // $x=21.995 $y=5.085 $x2=7.13 $y2=4.94
249 GND:78 X2/NET7:2 4.41668e-06 // $x=21.29 $y=7.895 $x2=4.715 $y2=4.94
250 x2/x1/MP11:g X2/NET7:7 8.16203e-06 // $x=24.035 $y=5.165 $x2=7.29 $y2=4.94
251 GND:85 X2/NET7:10 1.76118e-06 // $x=26.23 $y=0.975 $x2=7.29 $y2=2.56
252 x2/x1/MP11:g X2/NET7:18 2.26183e-06 // $x=24.035 $y=5.165 $x2=7.29 $y2=4.94
253 x2/x1/MP11:g X2/NET7:19 9.45797e-07 // $x=24.035 $y=5.165 $x2=7.3 $y2=4.755
254 GND:82 X2/NET7:25 6.00515e-06 // $x=21.835 $y=6.57 $x2=4.39 $y2=6.605
255 x2/x1/MP11:g x2/x1/MP7:g 2.60287e-06 // $x=24.035 $y=5.165 $x2=7.41 $y2=3.42
256 GND:85 X2/NET7:52 3.70282e-06 // $x=26.23 $y=0.975 $x2=7.275 $y2=2.44
257 GND:630 X2/NET7:52 4.84168e-06 // $x=25.06 $y=0.897 $x2=7.275 $y2=2.44
258 GND:78 x2/x1/MN17:d 2.31669e-05 // $x=21.29 $y=7.895 $x2=4.515 $y2=6.265
259 GND:84 x2/x1/MN17:d 1.69959e-06 // $x=21.905 $y=6.64 $x2=4.515 $y2=6.265
260 GND:621 x2/x1/MN17:d 5.40087e-05 // $x=21.83 $y=7.972 $x2=4.515 $y2=6.265
261 x2/x1/MN17:s x2/x1/MN17:d 2.68291e-05 // $x=21.53 $y=6.265 $x2=4.515 $y2=6.265
262 GND:120 X2/NET1:3 6.00593e-06 // $x=27.395 $y=0.152 $x2=4.57 $y2=4.94
263 GND:1135 X2/NET1:3 1.14842e-06 // $x=27.395 $y=0.897 $x2=4.57 $y2=4.94
264 GND:120 X2/NET1:4 4.15668e-06 // $x=27.395 $y=0.152 $x2=4.57 $y2=4.94
265 GND:85 X2/NET1:11 1.51881e-05 // $x=26.23 $y=0.975 $x2=7.29 $y2=2.56
266 GND:119 X2/NET1:17 1.52424e-06 // $x=36.635 $y=0.152 $x2=7.3 $y2=4.94
267 x2/x1/MN5:s X2/NET1:17 6.2639e-06 // $x=26.79 $y=1.945 $x2=7.3 $y2=4.94
268 GND:119 X2/NET1:24 1.91776e-05 // $x=36.635 $y=0.152 $x2=4.39 $y2=5.235
269 x2/x3/MN2:s X2/NET1:24 1.11049e-06 // $x=28.43 $y=0.575 $x2=4.39 $y2=5.235
270 x2/x1/MN5:s X2/NET1:37 4.49752e-06 // $x=26.79 $y=1.945 $x2=4.495 $y2=5.235
271 GND:120 X2/NET1:47 3.94078e-06 // $x=27.395 $y=0.152 $x2=7.41 $y2=2.965
272 GND:119 X2/NET1:49 5.95436e-06 // $x=36.635 $y=0.152 $x2=0 $y2=0
273 GND:120 X2/NET1:69 1.14049e-06 // $x=27.395 $y=0.152 $x2=0 $y2=0
274 GND:113 X2/NET1:82 4.83331e-06 // $x=34.615 $y=8.727 $x2=0 $y2=0
275 GND:678 X2/NET1:82 1.21387e-05 // $x=31.215 $y=8.727 $x2=0 $y2=0
276 GND:692 X2/NET1:82 1.28014e-06 // $x=32.205 $y=8.727 $x2=0 $y2=0
277 x2/x2/MN2:s X2/NET1:82 1.39509e-06 // $x=28.43 $y=7.755 $x2=0 $y2=0
278 GND:120 x2/x1/MN6:d 1.11839e-05 // $x=27.395 $y=0.152 $x2=0 $y2=0
279 GND:1135 x2/x1/MN6:d 3.23709e-05 // $x=27.395 $y=0.897 $x2=0 $y2=0
280 x2/x1/MN6:s x2/x1/MN6:d 4.98857e-05 // $x=25.96 $y=1.945 $x2=0 $y2=0
281 x2/x1/MN5:s x2/x1/MN6:d 4.9569e-05 // $x=26.79 $y=1.945 $x2=0 $y2=0
282 GND:119 x2/x3/MN1:s 2.18283e-06 // $x=36.635 $y=0.152 $x2=0 $y2=0
283 GND:674 x2/x3/MN1:s 1.1298e-05 // $x=31.215 $y=0.152 $x2=0 $y2=0
284 GND:690 x2/x3/MN1:s 1.33082e-06 // $x=32.205 $y=0.152 $x2=0 $y2=0
285 x2/x4/MN0:s x2/x3/MN1:s 8.67204e-06 // $x=31.175 $y=0.575 $x2=0 $y2=0
286 GND:86 X2/NET9:1 5.25252e-05 // $x=22.255 $y=0.975 $x2=7.13 $y2=4.94
287 GND:604 X2/NET9:1 6.37335e-07 // $x=22.68 $y=0.897 $x2=7.13 $y2=4.94
288 x2/x1/MN2:s X2/NET9:1 2.74554e-07 // $x=20.44 $y=2.175 $x2=7.13 $y2=4.94
289 GND:86 X2/NET9:2 9.84705e-06 // $x=22.255 $y=0.975 $x2=4.715 $y2=4.94
290 x2/x1/MN2:s X2/NET9:2 3.06011e-06 // $x=20.44 $y=2.175 $x2=4.715 $y2=4.94
291 GND:85 X2/NET9:6 1.33546e-05 // $x=26.23 $y=0.975 $x2=7.29 $y2=4.94
292 GND:1135 X2/NET9:6 3.43174e-07 // $x=27.395 $y=0.897 $x2=7.29 $y2=4.94
293 x2/x1/MN8:s X2/NET9:6 2.76216e-06 // $x=24.79 $y=1.945 $x2=7.29 $y2=4.94
294 GND:85 X2/NET9:13 1.01359e-05 // $x=26.23 $y=0.975 $x2=7.29 $y2=4.755
295 x2/x1/MN8:s X2/NET9:13 2.54752e-06 // $x=24.79 $y=1.945 $x2=7.29 $y2=4.755
296 GND:85 X2/NET9:16 3.55186e-05 // $x=26.23 $y=0.975 $x2=0 $y2=0
297 GND:1135 X2/NET9:16 1.18268e-06 // $x=27.395 $y=0.897 $x2=0 $y2=0
298 x2/x1/MN8:s X2/NET9:16 2.49373e-06 // $x=24.79 $y=1.945 $x2=0 $y2=0
299 GND:86 X2/NET9:27 2.3781e-06 // $x=22.255 $y=0.975 $x2=7.2 $y2=2.64
300 GND:604 X2/NET9:27 3.92222e-07 // $x=22.68 $y=0.897 $x2=7.2 $y2=2.64
301 x2/x1/MN2:s X2/NET9:27 2.58197e-05 // $x=20.44 $y=2.175 $x2=7.2 $y2=2.64
302 GND:85 X2/NET9:42 5.36093e-06 // $x=26.23 $y=0.975 $x2=0 $y2=0
303 GND:1135 X2/NET9:42 2.40924e-06 // $x=27.395 $y=0.897 $x2=0 $y2=0
304 x2/x1/MN6:s X2/NET9:42 2.04719e-05 // $x=25.96 $y=1.945 $x2=0 $y2=0
305 x2/x1/MN2:s X2/NET9:55 3.26826e-06 // $x=20.44 $y=2.175 $x2=0 $y2=0
306 GND:85 X2/NET9:61 2.0437e-06 // $x=26.23 $y=0.975 $x2=0 $y2=0
307 GND:120 X2/NET9:61 5.89587e-06 // $x=27.395 $y=0.152 $x2=0 $y2=0
308 GND:1135 X2/NET9:61 6.72104e-06 // $x=27.395 $y=0.897 $x2=0 $y2=0
309 x2/x1/MN6:s X2/NET9:61 1.33952e-05 // $x=25.96 $y=1.945 $x2=0 $y2=0
310 GND:86 X2/NET9:67 6.55193e-07 // $x=22.255 $y=0.975 $x2=0 $y2=0
311 x2/x1/MN2:s X2/NET9:67 8.67027e-06 // $x=20.44 $y=2.175 $x2=0 $y2=0
312 GND:86 X2/NET9:68 6.7388e-06 // $x=22.255 $y=0.975 $x2=0 $y2=0
313 GND:604 X2/NET9:68 7.44696e-06 // $x=22.68 $y=0.897 $x2=0 $y2=0
314 x2/x1/MN2:s X2/NET9:68 1.52379e-05 // $x=20.44 $y=2.175 $x2=0 $y2=0
315 GND:85 X2/NET9:73 5.39796e-07 // $x=26.23 $y=0.975 $x2=0 $y2=0
316 x2/x1/MN6:s X2/NET9:73 1.03408e-05 // $x=25.96 $y=1.945 $x2=0 $y2=0
317 GND:85 x2/x1/MN10:d 6.17082e-06 // $x=26.23 $y=0.975 $x2=0 $y2=0
318 GND:1135 x2/x1/MN10:d 3.31052e-05 // $x=27.395 $y=0.897 $x2=0 $y2=0
319 x2/x1/MN8:s x2/x1/MN10:d 3.01382e-05 // $x=24.79 $y=1.945 $x2=0 $y2=0
320 x2/x1/MN6:s x2/x1/MN10:d 4.13156e-05 // $x=25.96 $y=1.945 $x2=0 $y2=0
321 GND:68 X2/NET4:2 2.10081e-05 // $x=18.115 $y=8.575 $x2=4.715 $y2=4.94
322 GND:78 X2/NET4:2 4.75353e-06 // $x=21.29 $y=7.895 $x2=4.715 $y2=4.94
323 GND:599 X2/NET4:2 6.31462e-06 // $x=18.335 $y=6.4 $x2=4.715 $y2=4.94
324 GND:86 X2/NET4:6 4.37983e-07 // $x=22.255 $y=0.975 $x2=7.29 $y2=4.94
325 GND:630 X2/NET4:7 3.92999e-06 // $x=25.06 $y=0.897 $x2=7.29 $y2=4.94
326 GND:1128 X2/NET4:7 9.62391e-07 // $x=22.835 $y=1.71 $x2=7.29 $y2=4.94
327 x2/x1/MN0:s X2/NET4:7 1.52275e-05 // $x=22.55 $y=1.975 $x2=7.29 $y2=4.94
328 GND:85 X2/NET4:8 0.000194093 // $x=26.23 $y=0.975 $x2=0 $y2=0
329 GND:109 X2/NET4:9 1.54316e-05 // $x=23.975 $y=6.64 $x2=0 $y2=0
330 GND:335 X2/NET4:9 1.18449e-06 // $x=22.855 $y=6.64 $x2=0 $y2=0
331 GND:331 X2/NET4:10 9.11272e-06 // $x=21.835 $y=5.96 $x2=7.29 $y2=2.56
332 GND:335 X2/NET4:10 2.89422e-05 // $x=22.855 $y=6.64 $x2=7.29 $y2=2.56
333 GND:618 X2/NET4:10 2.70629e-07 // $x=21.905 $y=5.99 $x2=7.29 $y2=2.56
334 GND:99 X2/NET4:13 1.13851e-05 // $x=26.22 $y=7.895 $x2=7.29 $y2=4.755
335 GND:109 X2/NET4:13 6.45906e-06 // $x=23.975 $y=6.64 $x2=7.29 $y2=4.755
336 GND:339 X2/NET4:13 3.4332e-05 // $x=24.045 $y=5.96 $x2=7.29 $y2=4.755
337 GND:641 X2/NET4:13 6.20383e-06 // $x=24.045 $y=5.96 $x2=7.29 $y2=4.755
338 x2/x1/MP11:g X2/NET4:13 1.41918e-06 // $x=24.035 $y=5.165 $x2=7.29 $y2=4.755
339 GND:1355 X2/NET4:13 6.68738e-07 // $x=24.035 $y=5.99 $x2=7.29 $y2=4.755
340 GND:99 X2/NET4:16 6.94334e-06 // $x=26.22 $y=7.895 $x2=0 $y2=0
341 GND:112 X2/NET4:16 1.48437e-06 // $x=24.045 $y=6.57 $x2=0 $y2=0
342 GND:339 X2/NET4:16 2.75916e-05 // $x=24.045 $y=5.96 $x2=0 $y2=0
343 GND:641 X2/NET4:16 4.85715e-06 // $x=24.045 $y=5.96 $x2=0 $y2=0
344 GND:68 X2/NET4:25 2.4947e-05 // $x=18.115 $y=8.575 $x2=4.39 $y2=6.605
345 GND:73 X2/NET4:25 5.77359e-07 // $x=20.01 $y=8.727 $x2=4.39 $y2=6.605
346 GND:78 X2/NET4:25 2.56681e-06 // $x=21.29 $y=7.895 $x2=4.39 $y2=6.605
347 GND:586 X2/NET4:25 5.60271e-07 // $x=20.01 $y=8.727 $x2=4.39 $y2=6.605
348 GND:599 X2/NET4:25 4.1889e-06 // $x=18.335 $y=6.4 $x2=4.39 $y2=6.605
349 GND:68 X2/NET4:30 1.74617e-05 // $x=18.115 $y=8.575 $x2=7.29 $y2=2.56
350 GND:73 X2/NET4:30 1.19491e-05 // $x=20.01 $y=8.727 $x2=7.29 $y2=2.56
351 GND:78 X2/NET4:30 1.22654e-06 // $x=21.29 $y=7.895 $x2=7.29 $y2=2.56
352 GND:586 X2/NET4:30 3.26999e-06 // $x=20.01 $y=8.727 $x2=7.29 $y2=2.56
353 GND:599 X2/NET4:30 2.73941e-06 // $x=18.335 $y=6.4 $x2=7.29 $y2=2.56
354 GND:85 X2/NET4:36 3.69738e-06 // $x=26.23 $y=0.975 $x2=4.57 $y2=4.94
355 GND:109 X2/NET4:42 1.68921e-05 // $x=23.975 $y=6.64 $x2=0 $y2=0
356 GND:112 X2/NET4:42 1.63688e-06 // $x=24.045 $y=6.57 $x2=0 $y2=0
357 GND:339 X2/NET4:42 2.82145e-05 // $x=24.045 $y=5.96 $x2=0 $y2=0
358 GND:641 X2/NET4:42 1.59306e-06 // $x=24.045 $y=5.96 $x2=0 $y2=0
359 GND:85 X2/NET4:47 4.98491e-05 // $x=26.23 $y=0.975 $x2=7.41 $y2=2.965
360 GND:630 X2/NET4:47 1.16991e-06 // $x=25.06 $y=0.897 $x2=7.41 $y2=2.965
361 GND:1135 X2/NET4:47 1.2538e-06 // $x=27.395 $y=0.897 $x2=7.41 $y2=2.965
362 x2/x1/MN8:s X2/NET4:47 3.7818e-06 // $x=24.79 $y=1.945 $x2=7.41 $y2=2.965
363 GND:99 X2/NET4:54 8.57298e-06 // $x=26.22 $y=7.895 $x2=4.515 $y2=6.265
364 GND:99 X2/NET4:57 1.34492e-05 // $x=26.22 $y=7.895 $x2=0 $y2=0
365 GND:663 X2/NET4:57 3.38567e-07 // $x=27.21 $y=8.727 $x2=0 $y2=0
366 x2/x1/MN14:s X2/NET4:57 3.13366e-06 // $x=25.89 $y=6.265 $x2=0 $y2=0
367 GND:68 X2/NET4:60 1.06413e-05 // $x=18.115 $y=8.575 $x2=0 $y2=0
368 GND:73 X2/NET4:60 3.57747e-06 // $x=20.01 $y=8.727 $x2=0 $y2=0
369 GND:99 X2/NET4:72 1.51507e-05 // $x=26.22 $y=7.895 $x2=0 $y2=0
370 GND:99 X2/NET4:73 2.62959e-06 // $x=26.22 $y=7.895 $x2=0 $y2=0
371 GND:82 X2/NET4:75 2.49566e-06 // $x=21.835 $y=6.57 $x2=0 $y2=0
372 GND:109 X2/NET4:75 4.3228e-06 // $x=23.975 $y=6.64 $x2=0 $y2=0
373 GND:112 X2/NET4:75 2.30083e-06 // $x=24.045 $y=6.57 $x2=0 $y2=0
374 GND:331 X2/NET4:75 2.59287e-06 // $x=21.835 $y=5.96 $x2=0 $y2=0
375 GND:99 X2/NET4:79 8.56324e-06 // $x=26.22 $y=7.895 $x2=0 $y2=0
376 GND:112 X2/NET4:79 2.46965e-06 // $x=24.045 $y=6.57 $x2=0 $y2=0
377 GND:641 X2/NET4:79 5.36119e-07 // $x=24.045 $y=5.96 $x2=0 $y2=0
378 x2/x1/MP11:g X2/NET4:79 2.12242e-07 // $x=24.035 $y=5.165 $x2=0 $y2=0
379 x2/x1/MP11:g X2/NET4:80 1.723e-06 // $x=24.035 $y=5.165 $x2=0 $y2=0
380 GND:85 X2/NET4:84 1.26412e-05 // $x=26.23 $y=0.975 $x2=0 $y2=0
381 x2/x1/MN8:s X2/NET4:84 5.33444e-07 // $x=24.79 $y=1.945 $x2=0 $y2=0
382 GND:99 X2/NET4:92 7.70363e-06 // $x=26.22 $y=7.895 $x2=0 $y2=0
383 x2/x1/MN14:s X2/NET4:92 1.79675e-06 // $x=25.89 $y=6.265 $x2=0 $y2=0
384 GND:73 X2/NET4:94 5.96263e-06 // $x=20.01 $y=8.727 $x2=0 $y2=0