*SPEF "2.0"
*DESIGN "SKY130_OSU_RING_OSCILLATOR_MPR2ET_8"
*DATE "Fri Oct 27 10:30:59 2023"
*VENDOR "Mentor Graphics Corp."
*PROGRAM "Calibre xRC"
*VERSION "v2023.2_27.15"
*DESIGN_FLOW "extraction"
*DIVIDER /
*DELIMITER :
*BUS_DELIMITER []
*T_UNIT 1 NS
*C_UNIT 1 PF
*R_UNIT 1 OHM
*L_UNIT 1 HENRY



// CIRCUIT TEMPERATURE 30C
// NOMINAL TEMPERATURE 30C

*PORTS 
 X5_Y1 B
 VDD B
 X4_Y1 B
 X3_Y1 B
 X2_Y1 B
 X1_Y1 B
 GND B
 S5 B
 S4 B
 S3 B
 S2 B
 S1 B

*D_NET X1/NET6 0.000624637
*CONN
*I x1/x1/MN8:s B 
*I x1/x1/MP8:s B 

*CAP
0 X1/NET6:4 X1/NET7:2 2.08742e-07 // $x=1.165 $y=3.42 $x2=2.03 $y2=2.62
1 X1/NET6:5 X1/NET7:2 2.37547e-05 // $x=1.165 $y=3.26 $x2=2.03 $y2=2.62
2 X1/NET6:4 X1/NET7:8 3.53814e-05 // $x=1.165 $y=3.42 $x2=1.885 $y2=2.58
3 X1/NET6:5 X1/NET7:8 1.90091e-05 // $x=1.165 $y=3.26 $x2=1.885 $y2=2.58
4 X1/NET6:5 X1/NET7:9 1.56299e-06 // $x=1.165 $y=3.26 $x2=2.365 $y2=2.44
5 X1/NET6:5 X1/NET7:25 4.8492e-07 // $x=1.165 $y=3.26 $x2=1.885 $y2=2.58
6 X1/NET6:5 NET5:2 5.02433e-07 // $x=1.165 $y=3.26 $x2=2.03 $y2=2.62
7 X1/NET6:5 NET5:87 5.05375e-07 // $x=1.165 $y=3.26 $x2=0 $y2=0
8 X1/NET6:4 X1/X1/13:2 8.07541e-07 // $x=1.165 $y=3.42 $x2=2.03 $y2=2.62
9 X1/NET6:5 X1/X1/13:2 9.94375e-06 // $x=1.165 $y=3.26 $x2=2.03 $y2=2.62
10 X1/NET6:5 X1/X1/13:7 9.73244e-07 // $x=1.165 $y=3.26 $x2=1.885 $y2=2.58
11 X1/NET6:10 X1/X1/13:7 1.5765e-05 // $x=1.165 $y=2.02 $x2=1.885 $y2=2.58
12 x1/x1/MN8:s X1/X1/13:7 8.81562e-07 // $x=1.04 $y=1.735 $x2=1.885 $y2=2.58
13 X1/NET6:5 X1/X1/13:25 1.53295e-05 // $x=1.165 $y=3.26 $x2=1.885 $y2=2.58
14 X1/NET6:5 X1/X1/13:37 1.33284e-06 // $x=1.165 $y=3.26 $x2=3.125 $y2=2.62
15 X1/NET6:10 X1/X1/13:37 4.22812e-06 // $x=1.165 $y=2.02 $x2=3.125 $y2=2.62
16 X1/NET6:4 X1/X1/13:40 3.25408e-06 // $x=1.165 $y=3.42 $x2=1.885 $y2=3.485
17 X1/NET6:5 X1/X1/13:40 5.34168e-06 // $x=1.165 $y=3.26 $x2=1.885 $y2=3.485
18 X1/NET6:4 X1/X1/13:59 3.84359e-06 // $x=1.165 $y=3.42 $x2=0 $y2=0
19 X1/NET6:5 X1/X1/13:59 5.42626e-05 // $x=1.165 $y=3.26 $x2=0 $y2=0
20 X1/NET6:10 X1/X1/13:59 1.43955e-06 // $x=1.165 $y=2.02 $x2=0 $y2=0
21 x1/x1/MN8:s X1/X1/13:59 6.00753e-06 // $x=1.04 $y=1.735 $x2=0 $y2=0
22 x1/x1/MP8:s X1/X1/13:59 8.89923e-06 // $x=1.04 $y=2.985 $x2=0 $y2=0
23 X1/NET6:10 X1/X1/13:60 4.5676e-07 // $x=1.165 $y=2.02 $x2=0 $y2=0
24 x1/x1/MN8:s X1/X1/13:60 1.11708e-06 // $x=1.04 $y=1.735 $x2=0 $y2=0
25 X1/NET6:4 X1/X1/13:66 3.30163e-06 // $x=1.165 $y=3.42 $x2=0 $y2=0
26 X1/NET6:5 X1/X1/13:66 2.62263e-07 // $x=1.165 $y=3.26 $x2=0 $y2=0
27 x1/x1/MP8:s X1/X1/13:66 2.60842e-06 // $x=1.04 $y=2.985 $x2=0 $y2=0
28 X1/NET6:4 x1/x1/MP8:g 1.26864e-05 // $x=1.165 $y=3.42 $x2=0 $y2=0
29 X1/NET6:5 x1/x1/MP8:g 1.99881e-06 // $x=1.165 $y=3.26 $x2=0 $y2=0
30 x1/x1/MP8:s x1/x1/MP8:g 1.16532e-05 // $x=1.04 $y=2.985 $x2=0 $y2=0
31 X1/NET6:5 X1/X1/13:90 7.50972e-06 // $x=1.165 $y=3.26 $x2=0 $y2=0
32 X1/NET6:10 X1/X1/13:90 4.62524e-06 // $x=1.165 $y=2.02 $x2=0 $y2=0
33 x1/x1/MN8:s X1/X1/13:90 8.7937e-06 // $x=1.04 $y=1.735 $x2=0 $y2=0
34 X1/NET6:5 X1/X1/13:111 7.4009e-07 // $x=1.165 $y=3.26 $x2=0 $y2=0
35 X1/NET6:10 X1/X1/13:111 7.82301e-07 // $x=1.165 $y=2.02 $x2=0 $y2=0
36 X1/NET6:4 GND:30 3.278e-06 // $x=1.165 $y=3.42 $x2=3.125 $y2=2.66
37 X1/NET6:10 GND:30 3.82931e-05 // $x=1.165 $y=2.02 $x2=3.125 $y2=2.66
38 x1/x1/MN8:s GND:30 3.86055e-06 // $x=1.04 $y=1.735 $x2=3.125 $y2=2.66
39 X1/NET6:10 GND:187 2.0879e-06 // $x=1.165 $y=2.02 $x2=0 $y2=0
40 x1/x1/MN8:s GND:187 1.91475e-05 // $x=1.04 $y=1.735 $x2=0 $y2=0
41 X1/NET6:10 x1/x1/MN8:d 2.30236e-06 // $x=1.165 $y=2.02 $x2=0 $y2=0
42 x1/x1/MN8:s x1/x1/MN8:d 1.62715e-05 // $x=1.04 $y=1.735 $x2=0 $y2=0
43 X1/NET6:10 VDD:5 3.36468e-07 // $x=1.165 $y=2.02 $x2=0 $y2=0
44 x1/x1/MP8:s VDD:5 1.06774e-06 // $x=1.04 $y=2.985 $x2=0 $y2=0
45 X1/NET6:4 VDD:6 5.65253e-05 // $x=1.165 $y=3.42 $x2=0 $y2=0
46 X1/NET6:10 VDD:6 3.32232e-07 // $x=1.165 $y=2.02 $x2=0 $y2=0
47 x1/x1/MP8:s VDD:6 2.64262e-06 // $x=1.04 $y=2.985 $x2=0 $y2=0
48 x1/x1/MP8:s VDD:200 5.7653e-06 // $x=1.04 $y=2.985 $x2=0 $y2=0
49 X1/NET6:4 VDD:201 2.4071e-06 // $x=1.165 $y=3.42 $x2=0 $y2=0
50 X1/NET6:4 VDD:210 1.34915e-06 // $x=1.165 $y=3.42 $x2=0 $y2=0
51 x1/x1/MP8:s VDD:210 7.7571e-07 // $x=1.04 $y=2.985 $x2=0 $y2=0
52 X1/NET6:4 x1/x1/MP8:d 6.46292e-06 // $x=1.165 $y=3.42 $x2=0 $y2=0
53 x1/x1/MP8:s x1/x1/MP8:d 5.77727e-07 // $x=1.04 $y=2.985 $x2=0 $y2=0
54 x1/x1/MP8:s 1.35383e-05 // $x=1.04 $y=2.985
55 x1/x1/MN8:s 1.4745e-05 // $x=1.04 $y=1.735
56 X1/NET6:10 1.39256e-05 // $x=1.165 $y=2.02
57 X1/NET6:5 4.8238e-05 // $x=1.165 $y=3.26
58 X1/NET6:4 0.000100452 // $x=1.165 $y=3.42

*RES
59 X1/NET6:31 x1/x1/MP8:s 7.52941 // $w=0.187 $lvl=li $x=1.165 $y=3.56 $x2=1.165 $y2=3.45 $l=0.11
60 X1/NET6:25 x1/x1/MN8:s 6.84492 // $w=0.187 $lvl=li $x=1.165 $y=2.02 $x2=1.165 $y2=1.92 $l=0.1
61 X1/NET6:10 X1/NET6:25 9.3 // $w=0.17 $lvl=mcon $x=1.165 $y=2.02 $x2=1.165 $y2=2.02 $l=0.17 $count=1
62 X1/NET6:10 X1/NET6:12 0.093478 // $w=0.251 $lvl=m1 $x=1.165 $y=2.02 $x2=1.165 $y2=2.135 $l=0.115
63 X1/NET6:7 X1/NET6:31 9.3 // $w=0.17 $lvl=mcon $x=1.165 $y=3.56 $x2=1.165 $y2=3.56 $l=0.17 $count=1
64 X1/NET6:5 X1/NET6:12 1.21228 // $w=0.116 $lvl=m1 $x=1.162 $y=3.26 $x2=1.162 $y2=2.135 $l=1.125
65 X1/NET6:4 X1/NET6:7 0.0622776 // $w=0.281 $lvl=m1 $x=1.165 $y=3.42 $x2=1.165 $y2=3.56 $l=0.14
66 X1/NET6:4 X1/NET6:5 0.115193 // $w=0.281 $lvl=m1 $x=1.165 $y=3.42 $x2=1.165 $y2=3.26 $l=0.16

*END

*D_NET X1/NET7 0.00177638
*CONN
*I x1/x1/MN0:g I 
*I x1/x1/MN4:g I 
*I x1/x1/MP0:g I 
*I x1/x1/MP7:g I 

*CAP
0 X1/NET7:2 X1/NET6:4 2.08742e-07 // $x=2.03 $y=2.62 $x2=1.165 $y2=3.42
1 X1/NET7:2 X1/NET6:5 2.37547e-05 // $x=2.03 $y=2.62 $x2=1.165 $y2=3.26
2 X1/NET7:8 X1/NET6:4 3.53814e-05 // $x=1.885 $y=2.58 $x2=1.165 $y2=3.42
3 X1/NET7:8 X1/NET6:5 1.90091e-05 // $x=1.885 $y=2.58 $x2=1.165 $y2=3.26
4 X1/NET7:9 X1/NET6:5 1.56299e-06 // $x=2.365 $y=2.44 $x2=1.165 $y2=3.26
5 X1/NET7:25 X1/NET6:5 4.8492e-07 // $x=1.885 $y=2.58 $x2=1.165 $y2=3.26
6 X1/NET7:3 NET5:2 1.28577e-05 // $x=2.795 $y=2.44 $x2=1.162 $y2=3.26
7 X1/NET7:3 NET5:13 1.71312e-05 // $x=2.795 $y=2.44 $x2=0 $y2=0
8 X1/NET7:32 NET5:13 2.73282e-06 // $x=3.365 $y=2.66 $x2=0 $y2=0
9 X1/NET7:37 NET5:13 1.30684e-06 // $x=3.125 $y=2.62 $x2=0 $y2=0
10 X1/NET7:47 NET5:13 1.65667e-06 // $x=3.365 $y=2.495 $x2=0 $y2=0
11 X1/NET7:55 NET5:13 1.41206e-06 // $x=3.365 $y=2.66 $x2=0 $y2=0
12 X1/NET7:9 NET5:32 1.9573e-06 // $x=2.365 $y=2.44 $x2=0 $y2=0
13 X1/NET7:3 NET5:34 1.26361e-05 // $x=2.795 $y=2.44 $x2=0 $y2=0
14 X1/NET7:9 NET5:34 5.82981e-06 // $x=2.365 $y=2.44 $x2=0 $y2=0
15 X1/NET7:3 NET5:39 1.68e-05 // $x=2.795 $y=2.44 $x2=0 $y2=0
16 X1/NET7:32 NET5:39 3.19363e-06 // $x=3.365 $y=2.66 $x2=0 $y2=0
17 X1/NET7:55 NET5:39 1.48071e-06 // $x=3.365 $y=2.66 $x2=0 $y2=0
18 X1/NET7:3 NET5:57 1.57705e-06 // $x=2.795 $y=2.44 $x2=0 $y2=0
19 X1/NET7:3 NET5:61 3.47442e-06 // $x=2.795 $y=2.44 $x2=0 $y2=0
20 X1/NET7:47 NET5:61 2.86957e-06 // $x=3.365 $y=2.495 $x2=0 $y2=0
21 X1/NET7:3 NET5:62 3.41714e-05 // $x=2.795 $y=2.44 $x2=0 $y2=0
22 X1/NET7:8 NET5:62 6.48872e-05 // $x=1.885 $y=2.58 $x2=0 $y2=0
23 X1/NET7:9 NET5:62 2.53417e-06 // $x=2.365 $y=2.44 $x2=0 $y2=0
24 X1/NET7:37 NET5:62 1.04962e-06 // $x=3.125 $y=2.62 $x2=0 $y2=0
25 X1/NET7:47 NET5:62 5.04848e-07 // $x=3.365 $y=2.495 $x2=0 $y2=0
26 X1/NET7:55 NET5:62 2.11375e-07 // $x=3.365 $y=2.66 $x2=0 $y2=0
27 X1/NET7:25 NET5:87 2.86575e-06 // $x=1.885 $y=2.58 $x2=0 $y2=0
28 x1/x1/MP7:g NET5:87 2.97269e-06 // $x=3.365 $y=3.485 $x2=0 $y2=0
29 X1/NET7:55 NET5:87 7.22719e-07 // $x=3.365 $y=2.66 $x2=0 $y2=0
30 X1/NET7:1 NET5:125 4.26286e-06 // $x=2.295 $y=2.62 $x2=0 $y2=0
31 X1/NET7:3 NET5:125 4.44726e-06 // $x=2.795 $y=2.44 $x2=0 $y2=0
32 X1/NET7:9 NET5:125 8.22202e-06 // $x=2.365 $y=2.44 $x2=0 $y2=0
33 X1/NET7:25 NET5:125 1.16128e-05 // $x=1.885 $y=2.58 $x2=0 $y2=0
34 X1/NET7:37 NET5:125 8.73852e-06 // $x=3.125 $y=2.62 $x2=0 $y2=0
35 X1/NET7:53 NET5:125 4.46399e-06 // $x=1.885 $y=2.66 $x2=0 $y2=0
36 X1/NET7:55 NET5:125 5.75996e-07 // $x=3.365 $y=2.66 $x2=0 $y2=0
37 X1/NET7:3 NET5:130 5.0586e-07 // $x=2.795 $y=2.44 $x2=0 $y2=0
38 x1/x1/MP7:g NET5:130 1.66528e-06 // $x=3.365 $y=3.485 $x2=0 $y2=0
39 x1/x1/MP0:g x1/x1/MP1:g 5.64727e-05 // $x=1.885 $y=3.485 $x2=0 $y2=0
40 x1/x1/MP7:g x1/x1/MP1:g 1.82074e-05 // $x=3.365 $y=3.485 $x2=0 $y2=0
41 x1/x1/MP7:g x1/x1/MP5:g 3.3417e-06 // $x=3.365 $y=3.485 $x2=0 $y2=0
42 X1/NET7:3 NET5:140 1.39085e-06 // $x=2.795 $y=2.44 $x2=0 $y2=0
43 X1/NET7:9 NET5:140 2.02333e-06 // $x=2.365 $y=2.44 $x2=0 $y2=0
44 X1/NET7:42 NET5:140 4.07325e-05 // $x=1.885 $y=2.495 $x2=0 $y2=0
45 X1/NET7:47 NET5:140 1.29777e-05 // $x=3.365 $y=2.495 $x2=0 $y2=0
46 X1/NET7:47 NET5:145 1.46074e-06 // $x=3.365 $y=2.495 $x2=0 $y2=0
47 X1/NET7:1 NET5:151 2.92568e-07 // $x=2.295 $y=2.62 $x2=0 $y2=0
48 X1/NET7:2 NET5:151 3.74051e-07 // $x=2.03 $y=2.62 $x2=0 $y2=0
49 X1/NET7:3 NET5:151 1.84213e-06 // $x=2.795 $y=2.44 $x2=0 $y2=0
50 X1/NET7:25 NET5:151 1.79728e-06 // $x=1.885 $y=2.58 $x2=0 $y2=0
51 X1/NET7:37 NET5:151 2.0065e-06 // $x=3.125 $y=2.62 $x2=0 $y2=0
52 X1/NET7:53 NET5:151 4.30915e-05 // $x=1.885 $y=2.66 $x2=0 $y2=0
53 X1/NET7:55 NET5:151 7.488e-06 // $x=3.365 $y=2.66 $x2=0 $y2=0
54 X1/NET7:55 NET5:153 8.08794e-07 // $x=3.365 $y=2.66 $x2=0 $y2=0
55 X1/NET7:32 X1/NET11:1 2.79408e-06 // $x=3.365 $y=2.66 $x2=1.162 $y2=2.135
56 x1/x1/MP7:g X1/NET11:1 2.17617e-06 // $x=3.365 $y=3.485 $x2=1.162 $y2=2.135
57 X1/NET7:55 X1/NET11:1 9.40894e-07 // $x=3.365 $y=2.66 $x2=1.162 $y2=2.135
58 X1/NET7:3 X1/NET11:11 7.53139e-06 // $x=2.795 $y=2.44 $x2=0 $y2=0
59 X1/NET7:37 X1/NET11:11 3.80422e-06 // $x=3.125 $y=2.62 $x2=0 $y2=0
60 x1/x1/MP7:g X1/NET11:11 4.48597e-06 // $x=3.365 $y=3.485 $x2=0 $y2=0
61 X1/NET7:55 X1/NET11:11 1.18505e-06 // $x=3.365 $y=2.66 $x2=0 $y2=0
62 x1/x1/MP7:g X1/NET11:13 2.65534e-06 // $x=3.365 $y=3.485 $x2=0 $y2=0
63 X1/NET7:55 X1/NET11:13 9.88793e-07 // $x=3.365 $y=2.66 $x2=0 $y2=0
64 X1/NET7:3 X1/NET11:15 9.26642e-07 // $x=2.795 $y=2.44 $x2=0 $y2=0
65 X1/NET7:37 X1/NET11:15 3.73808e-06 // $x=3.125 $y=2.62 $x2=0 $y2=0
66 x1/x1/MP7:g X1/NET11:15 1.36961e-06 // $x=3.365 $y=3.485 $x2=0 $y2=0
67 X1/NET7:55 X1/NET11:15 1.03726e-06 // $x=3.365 $y=2.66 $x2=0 $y2=0
68 X1/NET7:32 X1/NET11:20 4.71158e-07 // $x=3.365 $y=2.66 $x2=0 $y2=0
69 X1/NET7:55 X1/NET11:20 4.46646e-07 // $x=3.365 $y=2.66 $x2=0 $y2=0
70 X1/NET7:3 X1/NET11:31 4.21676e-07 // $x=2.795 $y=2.44 $x2=1.165 $y2=3.56
71 X1/NET7:32 X1/NET11:31 1.28753e-05 // $x=3.365 $y=2.66 $x2=1.165 $y2=3.56
72 X1/NET7:37 X1/NET11:31 1.49222e-06 // $x=3.125 $y=2.62 $x2=1.165 $y2=3.56
73 x1/x1/MP7:g X1/NET11:31 1.12153e-06 // $x=3.365 $y=3.485 $x2=1.165 $y2=3.56
74 X1/NET7:55 X1/NET11:31 1.79728e-06 // $x=3.365 $y=2.66 $x2=1.165 $y2=3.56
75 x1/x1/MP7:g x1/x1/MP4:g 5.75251e-05 // $x=3.365 $y=3.485 $x2=0 $y2=0
76 X1/NET7:47 X1/NET11:49 4.26215e-05 // $x=3.365 $y=2.495 $x2=0 $y2=0
77 X1/NET7:32 X1/NET11:60 4.80578e-06 // $x=3.365 $y=2.66 $x2=0 $y2=0
78 X1/NET7:55 X1/NET11:60 4.4584e-05 // $x=3.365 $y=2.66 $x2=0 $y2=0
79 X1/NET7:1 X1/X1/13:2 1.65828e-05 // $x=2.295 $y=2.62 $x2=1.162 $y2=3.26
80 X1/NET7:2 X1/X1/13:2 6.53434e-06 // $x=2.03 $y=2.62 $x2=1.162 $y2=3.26
81 X1/NET7:8 X1/X1/13:2 6.3781e-07 // $x=1.885 $y=2.58 $x2=1.162 $y2=3.26
82 X1/NET7:25 X1/X1/13:2 1.06646e-06 // $x=1.885 $y=2.58 $x2=1.162 $y2=3.26
83 x1/x1/MP0:g X1/X1/13:2 1.37796e-06 // $x=1.885 $y=3.485 $x2=1.162 $y2=3.26
84 X1/NET7:53 X1/X1/13:2 8.65101e-07 // $x=1.885 $y=2.66 $x2=1.162 $y2=3.26
85 X1/NET7:1 X1/X1/13:6 4.93549e-07 // $x=2.295 $y=2.62 $x2=1.165 $y2=3.56
86 X1/NET7:3 X1/X1/13:6 1.31925e-05 // $x=2.795 $y=2.44 $x2=1.165 $y2=3.56
87 X1/NET7:9 X1/X1/13:6 5.16477e-05 // $x=2.365 $y=2.44 $x2=1.165 $y2=3.56
88 X1/NET7:32 X1/X1/13:6 2.9776e-06 // $x=3.365 $y=2.66 $x2=1.165 $y2=3.56
89 X1/NET7:37 X1/X1/13:6 1.57825e-06 // $x=3.125 $y=2.62 $x2=1.165 $y2=3.56
90 X1/NET7:47 X1/X1/13:6 6.66581e-06 // $x=3.365 $y=2.495 $x2=1.165 $y2=3.56
91 X1/NET7:55 X1/X1/13:6 9.7554e-07 // $x=3.365 $y=2.66 $x2=1.165 $y2=3.56
92 X1/NET7:1 X1/X1/13:7 1.42366e-05 // $x=2.295 $y=2.62 $x2=1.165 $y2=3.56
93 X1/NET7:2 X1/X1/13:7 6.20801e-06 // $x=2.03 $y=2.62 $x2=1.165 $y2=3.56
94 X1/NET7:8 X1/X1/13:7 6.3781e-07 // $x=1.885 $y=2.58 $x2=1.165 $y2=3.56
95 X1/NET7:25 X1/X1/13:7 1.01014e-06 // $x=1.885 $y=2.58 $x2=1.165 $y2=3.56
96 X1/NET7:42 X1/X1/13:7 2.85697e-06 // $x=1.885 $y=2.495 $x2=1.165 $y2=3.56
97 X1/NET7:1 X1/X1/13:25 1.39457e-05 // $x=2.295 $y=2.62 $x2=1.165 $y2=2.02
98 X1/NET7:2 X1/X1/13:25 2.35845e-06 // $x=2.03 $y=2.62 $x2=1.165 $y2=2.02
99 X1/NET7:8 X1/X1/13:25 3.66303e-05 // $x=1.885 $y=2.58 $x2=1.165 $y2=2.02
100 X1/NET7:9 X1/X1/13:25 4.82332e-06 // $x=2.365 $y=2.44 $x2=1.165 $y2=2.02
101 X1/NET7:25 X1/X1/13:25 1.51633e-06 // $x=1.885 $y=2.58 $x2=1.165 $y2=2.02
102 x1/x1/MP0:g X1/X1/13:25 1.49234e-06 // $x=1.885 $y=3.485 $x2=1.165 $y2=2.02
103 X1/NET7:42 X1/X1/13:25 2.28608e-06 // $x=1.885 $y=2.495 $x2=1.165 $y2=2.02
104 X1/NET7:53 X1/X1/13:25 8.04871e-07 // $x=1.885 $y=2.66 $x2=1.165 $y2=2.02
105 X1/NET7:1 X1/X1/13:37 1.35013e-06 // $x=2.295 $y=2.62 $x2=0 $y2=0
106 X1/NET7:2 X1/X1/13:37 5.62179e-07 // $x=2.03 $y=2.62 $x2=0 $y2=0
107 X1/NET7:8 X1/X1/13:37 2.56642e-06 // $x=1.885 $y=2.58 $x2=0 $y2=0
108 X1/NET7:42 X1/X1/13:37 6.55824e-07 // $x=1.885 $y=2.495 $x2=0 $y2=0
109 X1/NET7:1 X1/X1/13:40 1.49241e-06 // $x=2.295 $y=2.62 $x2=0 $y2=0
110 X1/NET7:2 X1/X1/13:40 6.48231e-07 // $x=2.03 $y=2.62 $x2=0 $y2=0
111 X1/NET7:8 X1/X1/13:40 2.56642e-06 // $x=1.885 $y=2.58 $x2=0 $y2=0
112 x1/x1/MP0:g X1/X1/13:40 3.27912e-07 // $x=1.885 $y=3.485 $x2=0 $y2=0
113 X1/NET7:53 X1/X1/13:40 3.69463e-07 // $x=1.885 $y=2.66 $x2=0 $y2=0
114 X1/NET7:2 X1/X1/13:48 4.02657e-06 // $x=2.03 $y=2.62 $x2=0 $y2=0
115 X1/NET7:8 X1/X1/13:48 4.2653e-06 // $x=1.885 $y=2.58 $x2=0 $y2=0
116 X1/NET7:25 X1/X1/13:48 8.58339e-06 // $x=1.885 $y=2.58 $x2=0 $y2=0
117 x1/x1/MP0:g X1/X1/13:48 1.50893e-05 // $x=1.885 $y=3.485 $x2=0 $y2=0
118 X1/NET7:53 X1/X1/13:48 4.92378e-06 // $x=1.885 $y=2.66 $x2=0 $y2=0
119 X1/NET7:2 X1/X1/13:59 9.77471e-06 // $x=2.03 $y=2.62 $x2=0 $y2=0
120 X1/NET7:8 X1/X1/13:59 3.56433e-06 // $x=1.885 $y=2.58 $x2=0 $y2=0
121 X1/NET7:25 X1/X1/13:59 1.43887e-05 // $x=1.885 $y=2.58 $x2=0 $y2=0
122 x1/x1/MP0:g X1/X1/13:59 3.36464e-06 // $x=1.885 $y=3.485 $x2=0 $y2=0
123 X1/NET7:53 X1/X1/13:59 1.83322e-06 // $x=1.885 $y=2.66 $x2=0 $y2=0
124 X1/NET7:1 X1/X1/13:60 6.92463e-07 // $x=2.295 $y=2.62 $x2=0 $y2=0
125 X1/NET7:42 X1/X1/13:60 2.62897e-06 // $x=1.885 $y=2.495 $x2=0 $y2=0
126 X1/NET7:1 X1/X1/13:66 9.25178e-07 // $x=2.295 $y=2.62 $x2=0 $y2=0
127 x1/x1/MP0:g X1/X1/13:66 3.39467e-06 // $x=1.885 $y=3.485 $x2=0 $y2=0
128 x1/x1/MP0:g x1/x1/MP8:g 5.68392e-05 // $x=1.885 $y=3.485 $x2=0 $y2=0
129 X1/NET7:2 X1/X1/13:90 2.81017e-07 // $x=2.03 $y=2.62 $x2=0 $y2=0
130 X1/NET7:8 X1/X1/13:90 5.09131e-07 // $x=1.885 $y=2.58 $x2=0 $y2=0
131 X1/NET7:42 X1/X1/13:90 3.96085e-05 // $x=1.885 $y=2.495 $x2=0 $y2=0
132 X1/NET7:2 X1/X1/13:111 2.01026e-06 // $x=2.03 $y=2.62 $x2=0 $y2=0
133 X1/NET7:8 X1/X1/13:111 7.19548e-07 // $x=1.885 $y=2.58 $x2=0 $y2=0
134 X1/NET7:25 X1/X1/13:111 3.87917e-06 // $x=1.885 $y=2.58 $x2=0 $y2=0
135 X1/NET7:53 X1/X1/13:111 4.62089e-05 // $x=1.885 $y=2.66 $x2=0 $y2=0
136 X1/NET7:3 X1/X1/9:2 8.05881e-07 // $x=2.795 $y=2.44 $x2=1.162 $y2=3.26
137 X1/NET7:3 GND:29 3.96839e-07 // $x=2.795 $y=2.44 $x2=0 $y2=0
138 X1/NET7:47 GND:29 4.61054e-06 // $x=3.365 $y=2.495 $x2=0 $y2=0
139 X1/NET7:1 GND:30 1.46411e-06 // $x=2.295 $y=2.62 $x2=1.165 $y2=3.56
140 X1/NET7:2 GND:30 1.59822e-05 // $x=2.03 $y=2.62 $x2=1.165 $y2=3.56
141 X1/NET7:3 GND:30 2.65183e-06 // $x=2.795 $y=2.44 $x2=1.165 $y2=3.56
142 X1/NET7:8 GND:30 1.80702e-05 // $x=1.885 $y=2.58 $x2=1.165 $y2=3.56
143 X1/NET7:25 GND:30 2.49083e-06 // $x=1.885 $y=2.58 $x2=1.165 $y2=3.56
144 X1/NET7:42 GND:30 4.94013e-06 // $x=1.885 $y=2.495 $x2=1.165 $y2=3.56
145 X1/NET7:53 GND:30 4.51273e-07 // $x=1.885 $y=2.66 $x2=1.165 $y2=3.56
146 X1/NET7:32 GND:186 1.89824e-06 // $x=3.365 $y=2.66 $x2=0 $y2=0
147 X1/NET7:47 GND:186 6.28549e-06 // $x=3.365 $y=2.495 $x2=0 $y2=0
148 X1/NET7:55 GND:186 7.94506e-07 // $x=3.365 $y=2.66 $x2=0 $y2=0
149 X1/NET7:2 GND:187 4.48305e-07 // $x=2.03 $y=2.62 $x2=0 $y2=0
150 X1/NET7:25 GND:187 1.61223e-06 // $x=1.885 $y=2.58 $x2=0 $y2=0
151 X1/NET7:32 GND:187 7.16324e-07 // $x=3.365 $y=2.66 $x2=0 $y2=0
152 X1/NET7:37 GND:187 7.05574e-07 // $x=3.125 $y=2.62 $x2=0 $y2=0
153 X1/NET7:42 GND:187 6.61034e-06 // $x=1.885 $y=2.495 $x2=0 $y2=0
154 X1/NET7:47 GND:187 4.57972e-07 // $x=3.365 $y=2.495 $x2=0 $y2=0
155 X1/NET7:53 GND:187 8.64452e-07 // $x=1.885 $y=2.66 $x2=0 $y2=0
156 X1/NET7:55 GND:187 1.15503e-06 // $x=3.365 $y=2.66 $x2=0 $y2=0
157 X1/NET7:2 x1/x1/MN8:d 2.85151e-06 // $x=2.03 $y=2.62 $x2=0 $y2=0
158 X1/NET7:8 x1/x1/MN8:d 4.13202e-06 // $x=1.885 $y=2.58 $x2=0 $y2=0
159 X1/NET7:42 x1/x1/MN8:d 7.80926e-06 // $x=1.885 $y=2.495 $x2=0 $y2=0
160 X1/NET7:3 x1/x1/MN4:s 1.18384e-06 // $x=2.795 $y=2.44 $x2=0 $y2=0
161 X1/NET7:32 x1/x1/MN4:s 2.80811e-06 // $x=3.365 $y=2.66 $x2=0 $y2=0
162 X1/NET7:37 x1/x1/MN4:s 4.659e-06 // $x=3.125 $y=2.62 $x2=0 $y2=0
163 X1/NET7:47 x1/x1/MN4:s 1.16525e-05 // $x=3.365 $y=2.495 $x2=0 $y2=0
164 X1/NET7:37 X1/X1/14:9 1.72434e-05 // $x=3.125 $y=2.62 $x2=1.165 $y2=2.02
165 x1/x1/MP7:g X1/X1/14:9 1.62019e-05 // $x=3.365 $y=3.485 $x2=1.165 $y2=2.02
166 X1/NET7:55 X1/X1/14:9 3.31611e-06 // $x=3.365 $y=2.66 $x2=1.165 $y2=2.02
167 X1/NET7:1 VDD:5 1.18499e-06 // $x=2.295 $y=2.62 $x2=1.165 $y2=3.26
168 X1/NET7:2 VDD:5 5.45837e-06 // $x=2.03 $y=2.62 $x2=1.165 $y2=3.26
169 X1/NET7:8 VDD:5 1.21171e-05 // $x=1.885 $y=2.58 $x2=1.165 $y2=3.26
170 x1/x1/MP0:g VDD:5 5.4878e-06 // $x=1.885 $y=3.485 $x2=1.165 $y2=3.26
171 X1/NET7:3 VDD:9 4.47506e-06 // $x=2.795 $y=2.44 $x2=1.165 $y2=2.02
172 X1/NET7:37 VDD:9 2.06722e-07 // $x=3.125 $y=2.62 $x2=1.165 $y2=2.02
173 x1/x1/MP7:g VDD:9 5.46753e-06 // $x=3.365 $y=3.485 $x2=1.165 $y2=2.02
174 X1/NET7:3 VDD:166 7.66191e-07 // $x=2.795 $y=2.44 $x2=0 $y2=0
175 X1/NET7:9 VDD:166 1.18499e-06 // $x=2.365 $y=2.44 $x2=0 $y2=0
176 x1/x1/MP7:g VDD:210 5.84265e-06 // $x=3.365 $y=3.485 $x2=0 $y2=0
177 X1/NET7:55 VDD:210 2.22387e-07 // $x=3.365 $y=2.66 $x2=0 $y2=0
178 x1/x1/MP0:g VDD:211 5.98895e-06 // $x=1.885 $y=3.485 $x2=0 $y2=0
179 X1/NET7:53 VDD:211 2.22428e-07 // $x=1.885 $y=2.66 $x2=0 $y2=0
180 x1/x1/MP0:g x1/x1/MP8:d 8.1535e-06 // $x=1.885 $y=3.485 $x2=0 $y2=0
181 x1/x1/MP7:g x1/x1/MP1:s 3.93821e-06 // $x=3.365 $y=3.485 $x2=0 $y2=0
182 x1/x1/MP7:g x1/x1/MP7:d 8.31734e-06 // $x=3.365 $y=3.485 $x2=0 $y2=0
183 X1/NET7:55 3.13301e-05 // $x=3.365 $y=2.66
184 X1/NET7:53 2.57557e-05 // $x=1.885 $y=2.66
185 X1/NET7:47 5.86469e-05 // $x=3.365 $y=2.495
186 X1/NET7:42 4.70109e-05 // $x=1.885 $y=2.495
187 x1/x1/MP7:g 8.13329e-05 // $x=3.365 $y=3.485
188 x1/x1/MP0:g 6.5092e-05 // $x=1.885 $y=3.485
189 X1/NET7:37 7.55051e-06 // $x=3.125 $y=2.62
190 X1/NET7:32 4.91677e-06 // $x=3.365 $y=2.66
191 X1/NET7:25 1.54386e-06 // $x=1.885 $y=2.58
192 X1/NET7:9 1.97288e-06 // $x=2.365 $y=2.44
193 X1/NET7:8 6.31358e-05 // $x=1.885 $y=2.58
194 X1/NET7:3 1.42659e-05 // $x=2.795 $y=2.44
195 X1/NET7:2 7.36409e-06 // $x=2.03 $y=2.62
196 X1/NET7:1 2.87006e-06 // $x=2.295 $y=2.62

*RES
197 X1/NET7:49 X1/NET7:55 52.7279 // $w=0.214 $lvl=ply $x=3.365 $y=2.825 $x2=3.365 $y2=2.66 $l=0.165
198 X1/NET7:47 X1/NET7:55 52.7279 // $w=0.214 $lvl=ply $x=3.365 $y=2.495 $x2=3.365 $y2=2.66 $l=0.165
199 X1/NET7:44 X1/NET7:53 52.7279 // $w=0.214 $lvl=ply $x=1.885 $y=2.825 $x2=1.885 $y2=2.66 $l=0.165
200 X1/NET7:42 X1/NET7:53 52.7279 // $w=0.214 $lvl=ply $x=1.885 $y=2.495 $x2=1.885 $y2=2.66 $l=0.165
201 x1/x1/MP7:g X1/NET7:49 338.426 // $w=0.094 $lvl=ply $x=3.365 $y=3.485 $x2=3.365 $y2=2.825 $l=0.66
202 x1/x1/MP0:g X1/NET7:44 338.426 // $w=0.094 $lvl=ply $x=1.885 $y=3.485 $x2=1.885 $y2=2.825 $l=0.66
203 x1/x1/MN4:g X1/NET7:47 139.78 // $w=0.15 $lvl=ply $x=3.365 $y=2.06 $x2=3.365 $y2=2.495 $l=0.435
204 x1/x1/MN0:g X1/NET7:42 139.78 // $w=0.15 $lvl=ply $x=1.885 $y=2.06 $x2=1.885 $y2=2.495 $l=0.435
205 X1/NET7:35 X1/NET7:37 5.24691 // $w=0.267 $lvl=li $x=3.04 $y=2.62 $x2=3.125 $y2=2.62 $l=0.085
206 X1/NET7:32 X1/NET7:55 152 // $w=0.17 $lvl=licon $x=3.365 $y=2.66 $x2=3.365 $y2=2.66 $l=0.17 $count=1
207 X1/NET7:32 X1/NET7:37 16.4278 // $w=0.187 $lvl=li $x=3.365 $y=2.66 $x2=3.125 $y2=2.66 $l=0.24
208 X1/NET7:28 X1/NET7:53 152 // $w=0.17 $lvl=licon $x=1.885 $y=2.66 $x2=1.885 $y2=2.66 $l=0.17 $count=1
209 X1/NET7:25 X1/NET7:28 5.47594 // $w=0.187 $lvl=li $x=1.885 $y=2.58 $x2=1.885 $y2=2.66 $l=0.08
210 X1/NET7:14 X1/NET7:35 9.3 // $w=0.17 $lvl=mcon $x=3.04 $y=2.58 $x2=3.04 $y2=2.58 $l=0.17 $count=1
211 X1/NET7:9 X1/NET7:11 0.222772 // $w=0.101 $lvl=m1 $x=2.365 $y=2.44 $x2=2.365 $y2=2.62 $l=0.18
212 X1/NET7:8 X1/NET7:25 9.3 // $w=0.17 $lvl=mcon $x=1.885 $y=2.58 $x2=1.885 $y2=2.58 $l=0.17 $count=1
213 X1/NET7:4 X1/NET7:9 0.0073411 // $w=0.14 $lvl=m1 $x=2.435 $y=2.44 $x2=2.365 $y2=2.44 $l=0.07
214 X1/NET7:3 X1/NET7:14 0.145793 // $w=0.253 $lvl=m1 $x=2.795 $y=2.44 $x2=3.04 $y2=2.532 $l=0.287341
215 X1/NET7:3 X1/NET7:4 0.445545 // $w=0.101 $lvl=m1 $x=2.795 $y=2.44 $x2=2.435 $y2=2.44 $l=0.36
216 X1/NET7:2 X1/NET7:8 0.0965967 // $w=0.248 $lvl=m1 $x=2.03 $y=2.62 $x2=1.885 $y2=2.58 $l=0.163783
217 X1/NET7:1 X1/NET7:11 0.0073411 // $w=0.14 $lvl=m1 $x=2.295 $y=2.62 $x2=2.365 $y2=2.62 $l=0.07
218 X1/NET7:1 X1/NET7:2 0.32797 // $w=0.101 $lvl=m1 $x=2.295 $y=2.62 $x2=2.03 $y2=2.62 $l=0.265

*END

*D_NET NET5 0.0181692
*CONN
*I x1/x1/MN1:g I 
*I x1/x1/MN6:g I 
*I x1/x1/MP1:g I 
*I x1/x1/MP5:g I 
*I x1/x3/MN0:s B 
*I x1/x2/MN1:s B 
*I x5/x7/MN0:d B 
*I x1/x3/MP1:s B 
*I x1/x2/MP0:s B 
*I x5/x7/MP0:d B 

*CAP
0 NET5:2 X1/NET6:5 5.02433e-07 // $x=2.605 $y=3.14 $x2=1.165 $y2=3.26
1 NET5:87 X1/NET6:5 5.05375e-07 // $x=2.485 $y=3.055 $x2=1.165 $y2=3.26
2 NET5:2 X1/NET7:3 1.28577e-05 // $x=2.605 $y=3.14 $x2=1.165 $y2=3.42
3 NET5:13 X1/NET7:3 1.71312e-05 // $x=4.325 $y=2.58 $x2=1.165 $y2=3.42
4 NET5:13 X1/NET7:32 2.73282e-06 // $x=4.325 $y=2.58 $x2=0 $y2=0
5 NET5:13 X1/NET7:37 1.30684e-06 // $x=4.325 $y=2.58 $x2=0 $y2=0
6 NET5:13 X1/NET7:47 1.65667e-06 // $x=4.325 $y=2.58 $x2=0 $y2=0
7 NET5:13 X1/NET7:55 1.41206e-06 // $x=4.325 $y=2.58 $x2=0 $y2=0
8 NET5:32 X1/NET7:9 1.9573e-06 // $x=2.485 $y=2.98 $x2=1.165 $y2=2.02
9 NET5:34 X1/NET7:3 1.26361e-05 // $x=2.555 $y=2.58 $x2=1.165 $y2=3.42
10 NET5:34 X1/NET7:9 5.82981e-06 // $x=2.555 $y=2.58 $x2=1.165 $y2=2.02
11 NET5:39 X1/NET7:3 1.68e-05 // $x=4.195 $y=2.58 $x2=1.165 $y2=3.42
12 NET5:39 X1/NET7:32 3.19363e-06 // $x=4.195 $y=2.58 $x2=0 $y2=0
13 NET5:39 X1/NET7:55 1.48071e-06 // $x=4.195 $y=2.58 $x2=0 $y2=0
14 NET5:57 X1/NET7:3 1.57705e-06 // $x=2.485 $y=3.14 $x2=1.165 $y2=3.42
15 NET5:61 X1/NET7:3 3.47442e-06 // $x=2.865 $y=2.395 $x2=1.165 $y2=3.42
16 NET5:61 X1/NET7:47 2.86957e-06 // $x=2.865 $y=2.395 $x2=0 $y2=0
17 NET5:62 X1/NET7:3 3.41714e-05 // $x=2.865 $y=2.58 $x2=1.165 $y2=3.42
18 NET5:62 X1/NET7:8 6.48872e-05 // $x=2.865 $y=2.58 $x2=0 $y2=0
19 NET5:62 X1/NET7:9 2.53417e-06 // $x=2.865 $y=2.58 $x2=1.165 $y2=2.02
20 NET5:62 X1/NET7:37 1.04962e-06 // $x=2.865 $y=2.58 $x2=0 $y2=0
21 NET5:62 X1/NET7:47 5.04848e-07 // $x=2.865 $y=2.58 $x2=0 $y2=0
22 NET5:62 X1/NET7:55 2.11375e-07 // $x=2.865 $y=2.58 $x2=0 $y2=0
23 NET5:87 X1/NET7:25 2.86575e-06 // $x=2.485 $y=3.055 $x2=1.165 $y2=2.02
24 NET5:87 x1/x1/MP7:g 2.97269e-06 // $x=2.485 $y=3.055 $x2=0 $y2=0
25 NET5:87 X1/NET7:55 7.22719e-07 // $x=2.485 $y=3.055 $x2=0 $y2=0
26 NET5:125 X1/NET7:1 4.26286e-06 // $x=2.485 $y=2.66 $x2=1.162 $y2=2.135
27 NET5:125 X1/NET7:3 4.44726e-06 // $x=2.485 $y=2.66 $x2=1.165 $y2=3.42
28 NET5:125 X1/NET7:9 8.22202e-06 // $x=2.485 $y=2.66 $x2=1.165 $y2=2.02
29 NET5:125 X1/NET7:25 1.16128e-05 // $x=2.485 $y=2.66 $x2=1.165 $y2=2.02
30 NET5:125 X1/NET7:37 8.73852e-06 // $x=2.485 $y=2.66 $x2=0 $y2=0
31 NET5:125 X1/NET7:53 4.46399e-06 // $x=2.485 $y=2.66 $x2=0 $y2=0
32 NET5:125 X1/NET7:55 5.75996e-07 // $x=2.485 $y=2.66 $x2=0 $y2=0
33 NET5:130 X1/NET7:3 5.0586e-07 // $x=2.605 $y=3.14 $x2=1.165 $y2=3.42
34 NET5:130 x1/x1/MP7:g 1.66528e-06 // $x=2.605 $y=3.14 $x2=0 $y2=0
35 x1/x1/MP1:g x1/x1/MP0:g 5.64727e-05 // $x=2.365 $y=3.485 $x2=0 $y2=0
36 x1/x1/MP1:g x1/x1/MP7:g 1.82074e-05 // $x=2.365 $y=3.485 $x2=0 $y2=0
37 x1/x1/MP5:g x1/x1/MP7:g 3.3417e-06 // $x=4.325 $y=3.485 $x2=0 $y2=0
38 NET5:140 X1/NET7:3 1.39085e-06 // $x=2.365 $y=2.495 $x2=1.165 $y2=3.42
39 NET5:140 X1/NET7:9 2.02333e-06 // $x=2.365 $y=2.495 $x2=1.165 $y2=2.02
40 NET5:140 X1/NET7:42 4.07325e-05 // $x=2.365 $y=2.495 $x2=0 $y2=0
41 NET5:140 X1/NET7:47 1.29777e-05 // $x=2.365 $y=2.495 $x2=0 $y2=0
42 NET5:145 X1/NET7:47 1.46074e-06 // $x=4.325 $y=2.495 $x2=0 $y2=0
43 NET5:151 X1/NET7:1 2.92568e-07 // $x=2.365 $y=2.66 $x2=1.162 $y2=2.135
44 NET5:151 X1/NET7:2 3.74051e-07 // $x=2.365 $y=2.66 $x2=1.162 $y2=3.26
45 NET5:151 X1/NET7:3 1.84213e-06 // $x=2.365 $y=2.66 $x2=1.165 $y2=3.42
46 NET5:151 X1/NET7:25 1.79728e-06 // $x=2.365 $y=2.66 $x2=1.165 $y2=2.02
47 NET5:151 X1/NET7:37 2.0065e-06 // $x=2.365 $y=2.66 $x2=0 $y2=0
48 NET5:151 X1/NET7:53 4.30915e-05 // $x=2.365 $y=2.66 $x2=0 $y2=0
49 NET5:151 X1/NET7:55 7.488e-06 // $x=2.365 $y=2.66 $x2=0 $y2=0
50 NET5:153 X1/NET7:55 8.08794e-07 // $x=4.325 $y=2.66 $x2=0 $y2=0
51 NET5:13 X1/NET11:1 1.02979e-05 // $x=4.325 $y=2.58 $x2=1.162 $y2=2.135
52 NET5:2 X1/NET11:11 2.89579e-05 // $x=2.605 $y=3.14 $x2=0 $y2=0
53 NET5:39 X1/NET11:11 4.93441e-07 // $x=4.195 $y=2.58 $x2=0 $y2=0
54 NET5:57 X1/NET11:11 1.87356e-06 // $x=2.485 $y=3.14 $x2=0 $y2=0
55 NET5:62 X1/NET11:11 2.12603e-07 // $x=2.865 $y=2.58 $x2=0 $y2=0
56 NET5:130 X1/NET11:11 8.45338e-07 // $x=2.605 $y=3.14 $x2=0 $y2=0
57 NET5:13 X1/NET11:13 2.10441e-05 // $x=4.325 $y=2.58 $x2=0 $y2=0
58 NET5:32 X1/NET11:13 1.04419e-05 // $x=2.485 $y=2.98 $x2=0 $y2=0
59 NET5:39 X1/NET11:13 5.44387e-06 // $x=4.195 $y=2.58 $x2=0 $y2=0
60 NET5:62 X1/NET11:13 1.03915e-06 // $x=2.865 $y=2.58 $x2=0 $y2=0
61 NET5:87 X1/NET11:13 5.52215e-06 // $x=2.485 $y=3.055 $x2=0 $y2=0
62 NET5:89 X1/NET11:13 1.20915e-06 // $x=4.325 $y=2.58 $x2=0 $y2=0
63 x1/x1/MP5:g X1/NET11:13 1.01846e-06 // $x=4.325 $y=3.485 $x2=0 $y2=0
64 NET5:153 X1/NET11:13 6.07887e-07 // $x=4.325 $y=2.66 $x2=0 $y2=0
65 NET5:2 X1/NET11:15 4.6094e-07 // $x=2.605 $y=3.14 $x2=0 $y2=0
66 NET5:13 X1/NET11:15 6.14455e-07 // $x=4.325 $y=2.58 $x2=0 $y2=0
67 NET5:39 X1/NET11:15 2.40605e-05 // $x=4.195 $y=2.58 $x2=0 $y2=0
68 NET5:57 X1/NET11:15 2.47866e-05 // $x=2.485 $y=3.14 $x2=0 $y2=0
69 NET5:13 X1/NET11:19 6.00113e-06 // $x=4.325 $y=2.58 $x2=0 $y2=0
70 NET5:39 X1/NET11:19 1.9407e-05 // $x=4.195 $y=2.58 $x2=0 $y2=0
71 NET5:65 X1/NET11:19 1.96256e-05 // $x=4.325 $y=2.58 $x2=0 $y2=0
72 NET5:89 X1/NET11:19 4.40624e-06 // $x=4.325 $y=2.58 $x2=0 $y2=0
73 x1/x1/MP5:g X1/NET11:19 2.82734e-06 // $x=4.325 $y=3.485 $x2=0 $y2=0
74 NET5:153 X1/NET11:19 5.9409e-07 // $x=4.325 $y=2.66 $x2=0 $y2=0
75 NET5:13 X1/NET11:20 2.15147e-06 // $x=4.325 $y=2.58 $x2=0 $y2=0
76 NET5:32 X1/NET11:20 6.72548e-07 // $x=2.485 $y=2.98 $x2=0 $y2=0
77 NET5:39 X1/NET11:20 2.42088e-05 // $x=4.195 $y=2.58 $x2=0 $y2=0
78 NET5:57 X1/NET11:20 5.13416e-07 // $x=2.485 $y=3.14 $x2=0 $y2=0
79 NET5:87 X1/NET11:20 3.25371e-07 // $x=2.485 $y=3.055 $x2=0 $y2=0
80 NET5:39 X1/NET11:22 1.51333e-05 // $x=4.195 $y=2.58 $x2=0 $y2=0
81 NET5:13 X1/NET11:31 1.20098e-05 // $x=4.325 $y=2.58 $x2=1.165 $y2=3.56
82 NET5:39 X1/NET11:31 2.86021e-06 // $x=4.195 $y=2.58 $x2=1.165 $y2=3.56
83 NET5:87 X1/NET11:31 1.92809e-06 // $x=2.485 $y=3.055 $x2=1.165 $y2=3.56
84 NET5:89 X1/NET11:31 1.56691e-05 // $x=4.325 $y=2.58 $x2=1.165 $y2=3.56
85 x1/x1/MP5:g X1/NET11:31 1.79377e-06 // $x=4.325 $y=3.485 $x2=1.165 $y2=3.56
86 NET5:153 X1/NET11:31 1.79728e-06 // $x=4.325 $y=2.66 $x2=1.165 $y2=3.56
87 NET5:89 X1/NET11:43 1.02301e-06 // $x=4.325 $y=2.58 $x2=0 $y2=0
88 x1/x1/MP5:g x1/x1/MP4:g 5.81639e-05 // $x=4.325 $y=3.485 $x2=0 $y2=0
89 NET5:13 X1/NET11:49 3.41071e-06 // $x=4.325 $y=2.58 $x2=0 $y2=0
90 NET5:145 X1/NET11:49 4.05756e-05 // $x=4.325 $y=2.495 $x2=0 $y2=0
91 NET5:13 X1/NET11:60 3.96244e-06 // $x=4.325 $y=2.58 $x2=0 $y2=0
92 NET5:39 X1/NET11:60 1.2092e-06 // $x=4.195 $y=2.58 $x2=0 $y2=0
93 NET5:89 X1/NET11:60 1.79728e-06 // $x=4.325 $y=2.58 $x2=0 $y2=0
94 NET5:153 X1/NET11:60 4.43908e-05 // $x=4.325 $y=2.66 $x2=0 $y2=0
95 NET5:13 X1/NET9:6 3.43456e-07 // $x=4.325 $y=2.58 $x2=1.165 $y2=3.56
96 NET5:62 X1/NET9:6 2.26523e-05 // $x=2.865 $y=2.58 $x2=1.165 $y2=3.56
97 NET5:65 X1/NET9:6 2.3852e-05 // $x=4.325 $y=2.58 $x2=1.165 $y2=3.56
98 NET5:13 X1/NET9:25 1.04457e-06 // $x=4.325 $y=2.58 $x2=1.165 $y2=2.02
99 NET5:89 X1/NET9:25 1.34888e-05 // $x=4.325 $y=2.58 $x2=1.165 $y2=2.02
100 NET5:153 X1/NET9:25 4.72046e-06 // $x=4.325 $y=2.66 $x2=1.165 $y2=2.02
101 x1/x1/MP5:g x1/x1/MP6:g 5.96663e-05 // $x=4.325 $y=3.485 $x2=1.165 $y2=3.56
102 NET5:145 X1/NET9:32 4.1465e-05 // $x=4.325 $y=2.495 $x2=0 $y2=0
103 NET5:89 X1/NET9:43 1.79728e-06 // $x=4.325 $y=2.58 $x2=0 $y2=0
104 NET5:153 X1/NET9:43 4.43419e-05 // $x=4.325 $y=2.66 $x2=0 $y2=0
105 NET5:47 X1/NET1:13 1.10999e-05 // $x=15.61 $y=2.11 $x2=0 $y2=0
106 NET5:48 X1/NET1:13 6.12637e-05 // $x=13.735 $y=2.11 $x2=0 $y2=0
107 NET5:37 X1/NET1:14 1.52721e-06 // $x=13.565 $y=1.405 $x2=0 $y2=0
108 NET5:37 X1/NET1:16 9.03941e-07 // $x=13.565 $y=1.405 $x2=0 $y2=0
109 NET5:47 X1/NET1:20 1.49852e-05 // $x=15.61 $y=2.11 $x2=0 $y2=0
110 NET5:54 X1/NET1:20 7.04579e-06 // $x=15.752 $y=5.695 $x2=0 $y2=0
111 NET5:51 X1/NET1:24 1.62208e-05 // $x=15.665 $y=5.782 $x2=1.165 $y2=2.02
112 NET5:37 X1/NET1:37 2.38365e-06 // $x=13.565 $y=1.405 $x2=0 $y2=0
113 NET5:48 X1/NET1:37 3.46195e-07 // $x=13.735 $y=2.11 $x2=0 $y2=0
114 NET5:47 X1/NET1:39 6.22193e-05 // $x=15.61 $y=2.11 $x2=0 $y2=0
115 NET5:54 X1/NET1:39 1.69474e-05 // $x=15.752 $y=5.695 $x2=0 $y2=0
116 NET5:17 X1/NET1:40 2.25458e-05 // $x=14.95 $y=6.4 $x2=0 $y2=0
117 NET5:54 X1/NET1:40 7.76705e-05 // $x=15.752 $y=5.695 $x2=0 $y2=0
118 NET5:69 X1/NET1:40 3.69407e-05 // $x=14.995 $y=6.445 $x2=0 $y2=0
119 NET5:72 X1/NET1:40 5.61664e-05 // $x=14.952 $y=5.782 $x2=0 $y2=0
120 NET5:101 X1/NET1:40 2.26579e-07 // $x=14.95 $y=6.4 $x2=0 $y2=0
121 x1/x3/MP1:s X1/NET1:40 9.60888e-06 // $x=14.77 $y=5.015 $x2=0 $y2=0
122 NET5:51 X1/NET1:57 7.0982e-06 // $x=15.665 $y=5.782 $x2=0 $y2=0