*SPEF "2.0"
*DESIGN "SKY130_OSU_RING_OSCILLATOR_MPR2YA_8_B0R1"
*DATE "Fri Nov  3 09:50:46 2023"
*VENDOR "Mentor Graphics Corp."
*PROGRAM "Calibre xRC"
*VERSION "v2023.2_27.15"
*DESIGN_FLOW "extraction"
*DIVIDER /
*DELIMITER :
*BUS_DELIMITER []
*T_UNIT 1 NS
*C_UNIT 1 PF
*R_UNIT 1 OHM
*L_UNIT 1 HENRY



// CIRCUIT TEMPERATURE 30C
// NOMINAL TEMPERATURE 30C

*PORTS 
 X5_Y1 B
 X4_Y1 B
 X3_Y1 B
 X2_Y1 B
 X1_Y1 B
 VDD B
 START B
 S5 B
 S4 B
 S3 B
 S2 B
 S1 B
 GND B

*D_NET GND 0.047857
*CONN
*P GND B 
*I x1/x11/MN10:g I 
*I x1/x11/MN7:g I 
*I x2/x11/MN10:g I 
*I x2/x11/MN7:g I 
*I x3/x11/MN10:g I 
*I x3/x11/MN7:g I 
*I x4/x11/MN10:g I 
*I x4/x11/MN7:g I 
*I x5/x11/MN10:g I 
*I x5/x11/MN7:g I 
*I x1/x11/MP9:g I 
*I x1/x11/MP6:g I 
*I x2/x11/MP9:g I 
*I x2/x11/MP6:g I 
*I x3/x11/MP9:g I 
*I x3/x11/MP6:g I 
*I x4/x11/MP9:g I 
*I x4/x11/MP6:g I 
*I x5/x11/MP9:g I 
*I x5/x11/MP6:g I 
*I x6/MN2:s B 
*I x1/x11/MN9:s B 
*I x1/x11/MN8:d B 
*I x1/x11/MN5:s B 
*I x1/x11/MN0:d B 
*I x1/x11/MN1:s B 
*I x1/x11/MN3:s B 
*I x1/x8/MN2:s B 
*I x1/x8/MN0:s B 
*I x1/x11/MN2:d B 
*I x1/x11/MN11:s B 
*I x1/x11/MN12:d B 
*I x1/x11/MN13:s B 
*I x1/x11/MN14:d B 
*I x1/x3/MN2:s B 
*I x1/x2/MN2:s B 
*I x1/x4/MN0:s B 
*I x1/x6/MN0:s B 
*I x1/x5/MN0:s B 
*I x1/x7/MN0:s B 
*I x2/x11/MN9:s B 
*I x2/x11/MN8:d B 
*I x2/x11/MN5:s B 
*I x2/x11/MN0:d B 
*I x2/x11/MN1:s B 
*I x2/x11/MN3:s B 
*I x2/x8/MN2:s B 
*I x2/x8/MN0:s B 
*I x2/x11/MN2:d B 
*I x2/x11/MN11:s B 
*I x2/x11/MN12:d B 
*I x2/x11/MN13:s B 
*I x2/x11/MN14:d B 
*I x2/x3/MN2:s B 
*I x2/x2/MN2:s B 
*I x2/x4/MN0:s B 
*I x2/x6/MN0:s B 
*I x2/x5/MN0:s B 
*I x2/x7/MN0:s B 
*I x3/x11/MN9:s B 
*I x3/x11/MN8:d B 
*I x3/x11/MN5:s B 
*I x3/x11/MN0:d B 
*I x3/x11/MN1:s B 
*I x3/x11/MN3:s B 
*I x3/x8/MN2:s B 
*I x3/x8/MN0:s B 
*I x3/x11/MN2:d B 
*I x3/x11/MN11:s B 
*I x3/x11/MN12:d B 
*I x3/x11/MN13:s B 
*I x3/x11/MN14:d B 
*I x3/x3/MN2:s B 
*I x3/x2/MN2:s B 
*I x3/x4/MN0:s B 
*I x3/x6/MN0:s B 
*I x3/x5/MN0:s B 
*I x3/x7/MN0:s B 
*I x4/x11/MN9:s B 
*I x4/x11/MN8:d B 
*I x4/x11/MN5:s B 
*I x4/x11/MN0:d B 
*I x4/x11/MN1:s B 
*I x4/x11/MN3:s B 
*I x4/x8/MN2:s B 
*I x4/x8/MN0:s B 
*I x4/x11/MN2:d B 
*I x4/x11/MN11:s B 
*I x4/x11/MN12:d B 
*I x4/x11/MN13:s B 
*I x4/x11/MN14:d B 
*I x4/x3/MN2:s B 
*I x4/x2/MN2:s B 
*I x4/x4/MN0:s B 
*I x4/x6/MN0:s B 
*I x4/x5/MN0:s B 
*I x4/x7/MN0:s B 
*I x5/x11/MN9:s B 
*I x5/x11/MN8:d B 
*I x5/x11/MN5:s B 
*I x5/x11/MN0:d B 
*I x5/x11/MN1:s B 
*I x5/x11/MN3:s B 
*I x5/x8/MN2:s B 
*I x5/x8/MN0:s B 
*I x5/x11/MN2:d B 
*I x5/x11/MN11:s B 
*I x5/x11/MN12:d B 
*I x5/x11/MN13:s B 
*I x5/x11/MN14:d B 
*I x5/x3/MN2:s B 
*I x5/x2/MN2:s B 
*I x5/x4/MN0:s B 
*I x5/x6/MN0:s B 
*I x5/x5/MN0:s B 
*I x5/x7/MN0:s B 
*I x1/x8/MP1:s B 
*I x2/x8/MP1:s B 
*I x3/x8/MP1:s B 
*I x4/x8/MP1:s B 
*I x5/x8/MP1:s B 

*CAP
0 GND:167 X1/NET8:8 2.00629e-06 // $x=2.81 $y=2.5 $x2=3.86 $y2=2.355
1 x1/x11/MN5:s X1/NET8:8 5.12045e-07 // $x=3.86 $y=1.735 $x2=3.86 $y2=2.355
2 GND:13 X1/NET8:14 4.45187e-06 // $x=8.62 $y=0.87 $x2=3.865 $y2=2.435
3 GND:239 X1/NET8:14 1.20058e-06 // $x=2.947 $y=2.33 $x2=3.865 $y2=2.435
4 GND:253 X1/NET8:14 3.69316e-05 // $x=2.905 $y=2.46 $x2=3.865 $y2=2.435
5 x1/x11/MN5:s X1/NET8:14 2.7711e-06 // $x=3.86 $y=1.735 $x2=3.865 $y2=2.435
6 GND:13 X1/NET8:22 9.12068e-06 // $x=8.62 $y=0.87 $x2=3.86 $y2=2.355
7 GND:167 X1/NET8:22 3.04239e-07 // $x=2.81 $y=2.5 $x2=3.86 $y2=2.355
8 GND:324 X1/NET8:22 3.07106e-06 // $x=3.94 $y=0.792 $x2=3.86 $y2=2.355
9 GND:369 X1/NET8:22 1.84286e-05 // $x=9.49 $y=0.152 $x2=3.86 $y2=2.355
10 GND:776 X1/NET8:22 1.14521e-06 // $x=2.81 $y=2.5 $x2=3.86 $y2=2.355
11 x1/x11/MN5:s X1/NET8:22 3.25385e-05 // $x=3.86 $y=1.735 $x2=3.86 $y2=2.355
12 x1/x11/MN1:s X1/NET8:22 3.83342e-06 // $x=4.82 $y=1.735 $x2=3.86 $y2=2.355
13 GND:13 x1/x11/MP0:s 7.04218e-07 // $x=8.62 $y=0.87 $x2=4.34 $y2=2.985
14 GND:13 X1/NET7:4 3.45095e-05 // $x=8.62 $y=0.87 $x2=4.475 $y2=3.395
15 GND:369 X1/NET7:4 1.05018e-06 // $x=9.49 $y=0.152 $x2=4.475 $y2=3.395
16 x1/x11/MN2:d X1/NET7:4 2.79461e-06 // $x=6.74 $y=1.735 $x2=4.475 $y2=3.395
17 GND:13 X1/NET7:18 4.77199e-07 // $x=8.62 $y=0.87 $x2=0 $y2=0
18 GND:369 X1/NET7:18 2.51633e-07 // $x=9.49 $y=0.152 $x2=0 $y2=0
19 GND:13 X1/NET7:26 3.58449e-06 // $x=8.62 $y=0.87 $x2=0 $y2=0
20 GND:369 X1/NET7:26 6.04001e-06 // $x=9.49 $y=0.152 $x2=0 $y2=0
21 x1/x11/MN1:s X1/NET7:26 9.03965e-06 // $x=4.82 $y=1.735 $x2=0 $y2=0
22 GND:369 X1/NET7:29 7.33874e-07 // $x=9.49 $y=0.152 $x2=4.34 $y2=1.735
23 GND:13 x1/x11/MN2:s 4.32758e-06 // $x=8.62 $y=0.87 $x2=4.34 $y2=2.985
24 GND:369 x1/x11/MN2:s 1.22849e-05 // $x=9.49 $y=0.152 $x2=4.34 $y2=2.985
25 x1/x11/MN1:s x1/x11/MN2:s 4.24083e-07 // $x=4.82 $y=1.735 $x2=4.34 $y2=2.985
26 x1/x11/MN2:d x1/x11/MN2:s 1.92952e-05 // $x=6.74 $y=1.735 $x2=4.34 $y2=2.985
27 GND:28 X1/NET4:1 2.74549e-05 // $x=5.78 $y=8.575 $x2=4.45 $y2=3.395
28 GND:29 X1/NET4:1 3.95891e-07 // $x=20.955 $y=8.727 $x2=4.45 $y2=3.395
29 GND:342 X1/NET4:1 5.8742e-07 // $x=10.555 $y=8.727 $x2=4.45 $y2=3.395
30 GND:355 X1/NET4:1 4.94875e-06 // $x=6.01 $y=6.4 $x2=4.45 $y2=3.395
31 GND:28 X1/NET4:2 1.83808e-05 // $x=5.78 $y=8.575 $x2=4.45 $y2=3.395
32 GND:355 X1/NET4:2 5.49277e-06 // $x=6.01 $y=6.4 $x2=4.45 $y2=3.395
33 GND:14 X1/NET4:4 8.64703e-06 // $x=2.49 $y=0.87 $x2=4.475 $y2=3.395
34 GND:167 X1/NET4:4 1.15033e-05 // $x=2.81 $y=2.5 $x2=4.475 $y2=3.395
35 GND:253 X1/NET4:4 1.41765e-05 // $x=2.905 $y=2.46 $x2=4.475 $y2=3.395
36 GND:324 X1/NET4:4 3.42168e-07 // $x=3.94 $y=0.792 $x2=4.475 $y2=3.395
37 GND:776 X1/NET4:4 5.81928e-06 // $x=2.81 $y=2.5 $x2=4.475 $y2=3.395
38 x1/x11/MP6:g X1/NET4:4 4.19857e-06 // $x=2.825 $y=3.485 $x2=4.475 $y2=3.395
39 GND:1018 X1/NET4:4 3.5647e-06 // $x=2.825 $y=2.66 $x2=4.475 $y2=3.395
40 GND:13 X1/NET4:5 2.64067e-06 // $x=8.62 $y=0.87 $x2=4.475 $y2=3.39
41 GND:167 X1/NET4:5 4.75725e-06 // $x=2.81 $y=2.5 $x2=4.475 $y2=3.39
42 x1/x11/MP6:g X1/NET4:5 1.06976e-06 // $x=2.825 $y=3.485 $x2=4.475 $y2=3.39
43 GND:13 X1/NET4:6 5.89726e-07 // $x=8.62 $y=0.87 $x2=0 $y2=0
44 x1/x11/MN5:s X1/NET4:8 2.52761e-07 // $x=3.86 $y=1.735 $x2=3.86 $y2=2.355
45 GND:14 X1/NET4:13 5.56623e-06 // $x=2.49 $y=0.87 $x2=3.971 $y2=2.435
46 GND:776 X1/NET4:13 2.70654e-06 // $x=2.81 $y=2.5 $x2=3.971 $y2=2.435
47 x1/x11/MP9:g X1/NET4:13 1.73795e-06 // $x=1.385 $y=3.485 $x2=3.971 $y2=2.435
48 GND:1016 X1/NET4:13 8.40364e-07 // $x=1.385 $y=2.66 $x2=3.971 $y2=2.435
49 GND:167 X1/NET4:19 3.73535e-05 // $x=2.81 $y=2.5 $x2=0 $y2=0
50 GND:253 X1/NET4:19 6.19824e-06 // $x=2.905 $y=2.46 $x2=0 $y2=0
51 GND:776 X1/NET4:19 1.45795e-06 // $x=2.81 $y=2.5 $x2=0 $y2=0
52 GND:1018 X1/NET4:19 6.56674e-07 // $x=2.825 $y=2.66 $x2=0 $y2=0
53 GND:13 X1/NET4:23 1.05319e-06 // $x=8.62 $y=0.87 $x2=4.505 $y2=2.172
54 GND:13 X1/NET4:27 4.32936e-07 // $x=8.62 $y=0.87 $x2=4.51 $y2=3.39
55 x1/x11/MN1:s X1/NET4:27 1.25267e-06 // $x=4.82 $y=1.735 $x2=4.51 $y2=3.39
56 GND:28 X1/NET4:31 1.81291e-05 // $x=5.78 $y=8.575 $x2=4.34 $y2=2.985
57 GND:29 X1/NET4:31 8.48754e-06 // $x=20.955 $y=8.727 $x2=4.34 $y2=2.985
58 GND:342 X1/NET4:31 3.25882e-06 // $x=10.555 $y=8.727 $x2=4.34 $y2=2.985
59 GND:355 X1/NET4:31 5.2119e-06 // $x=6.01 $y=6.4 $x2=4.34 $y2=2.985
60 GND:13 X1/NET4:37 1.56984e-05 // $x=8.62 $y=0.87 $x2=0 $y2=0
61 x1/x11/MN5:s X1/NET4:37 8.03704e-07 // $x=3.86 $y=1.735 $x2=0 $y2=0
62 GND:13 X1/NET4:38 2.53447e-05 // $x=8.62 $y=0.87 $x2=0 $y2=0
63 GND:167 X1/NET4:38 5.06683e-06 // $x=2.81 $y=2.5 $x2=0 $y2=0
64 GND:239 X1/NET4:38 3.69243e-05 // $x=2.947 $y=2.33 $x2=0 $y2=0
65 GND:253 X1/NET4:38 4.55871e-05 // $x=2.905 $y=2.46 $x2=0 $y2=0
66 x1/x11/MN5:s X1/NET4:38 3.49302e-06 // $x=3.86 $y=1.735 $x2=0 $y2=0
67 GND:28 X1/NET4:40 1.03727e-05 // $x=5.78 $y=8.575 $x2=0 $y2=0
68 GND:14 X1/NET4:45 1.3832e-05 // $x=2.49 $y=0.87 $x2=0 $y2=0
69 GND:167 X1/NET4:45 6.62665e-07 // $x=2.81 $y=2.5 $x2=0 $y2=0
70 GND:253 X1/NET4:45 1.44924e-06 // $x=2.905 $y=2.46 $x2=0 $y2=0
71 GND:776 X1/NET4:45 1.00093e-05 // $x=2.81 $y=2.5 $x2=0 $y2=0
72 GND:13 X1/NET4:51 4.66804e-05 // $x=8.62 $y=0.87 $x2=0 $y2=0
73 GND:239 X1/NET4:51 9.64468e-07 // $x=2.947 $y=2.33 $x2=0 $y2=0
74 x1/x11/MN5:s X1/NET4:51 1.52635e-06 // $x=3.86 $y=1.735 $x2=0 $y2=0
75 x1/x11/MN1:s X1/NET4:51 4.92767e-06 // $x=4.82 $y=1.735 $x2=0 $y2=0
76 GND:14 X1/NET4:58 1.33991e-05 // $x=2.49 $y=0.87 $x2=0 $y2=0
77 GND:253 X1/NET4:58 8.13487e-05 // $x=2.905 $y=2.46 $x2=0 $y2=0
78 GND:776 X1/NET4:58 7.9933e-06 // $x=2.81 $y=2.5 $x2=0 $y2=0
79 x1/x11/MN9:s X1/NET4:58 3.27034e-06 // $x=1.94 $y=1.735 $x2=0 $y2=0
80 GND:249 X1/NET4:60 3.9172e-06 // $x=2.95 $y=1.13 $x2=0 $y2=0
81 GND:253 X1/NET4:60 2.44434e-05 // $x=2.905 $y=2.46 $x2=0 $y2=0
82 GND:28 X1/NET4:71 1.01903e-05 // $x=5.78 $y=8.575 $x2=0 $y2=0
83 GND:172 X1/NET4:71 9.16761e-06 // $x=5.78 $y=6.4 $x2=0 $y2=0
84 GND:781 X1/NET4:71 5.96165e-06 // $x=5.982 $y=6.245 $x2=0 $y2=0
85 x1/x8/MP1:s X1/NET4:71 1.04126e-05 // $x=5.83 $y=5.015 $x2=0 $y2=0
86 GND:13 X1/NET4:77 2.10054e-05 // $x=8.62 $y=0.87 $x2=0 $y2=0
87 x1/x11/MN1:s X1/NET4:77 2.41475e-06 // $x=4.82 $y=1.735 $x2=0 $y2=0
88 GND:253 X1/NET4:81 5.52112e-06 // $x=2.905 $y=2.46 $x2=0 $y2=0
89 GND:28 X1/NET4:94 7.18263e-07 // $x=5.78 $y=8.575 $x2=0 $y2=0
90 GND:29 X1/NET4:94 2.15467e-06 // $x=20.955 $y=8.727 $x2=0 $y2=0
91 GND:342 X1/NET4:94 1.39846e-05 // $x=10.555 $y=8.727 $x2=0 $y2=0
92 GND:353 X1/NET4:94 1.62681e-05 // $x=6.01 $y=7.855 $x2=0 $y2=0
93 GND:355 X1/NET4:94 1.745e-05 // $x=6.01 $y=6.4 $x2=0 $y2=0
94 GND:14 X1/NET4:100 2.58606e-07 // $x=2.49 $y=0.87 $x2=0 $y2=0
95 GND:167 X1/NET4:100 1.28889e-06 // $x=2.81 $y=2.5 $x2=0 $y2=0
96 GND:776 X1/NET4:100 3.49081e-05 // $x=2.81 $y=2.5 $x2=0 $y2=0
97 GND:1018 X1/NET4:100 1.80773e-06 // $x=2.825 $y=2.66 $x2=0 $y2=0
98 GND:167 X1/NET4:104 1.96769e-06 // $x=2.81 $y=2.5 $x2=0 $y2=0
99 GND:253 X1/NET4:104 1.00164e-06 // $x=2.905 $y=2.46 $x2=0 $y2=0
100 GND:324 X1/NET4:104 1.80477e-06 // $x=3.94 $y=0.792 $x2=0 $y2=0
101 GND:776 X1/NET4:104 1.43076e-05 // $x=2.81 $y=2.5 $x2=0 $y2=0
102 GND:13 X1/NET4:110 1.54802e-06 // $x=8.62 $y=0.87 $x2=0 $y2=0
103 GND:167 X1/NET4:110 9.49786e-07 // $x=2.81 $y=2.5 $x2=0 $y2=0
104 GND:324 X1/NET4:110 3.87064e-06 // $x=3.94 $y=0.792 $x2=0 $y2=0
105 GND:776 X1/NET4:110 2.93552e-05 // $x=2.81 $y=2.5 $x2=0 $y2=0
106 x1/x11/MP9:g X1/NET4:110 2.69329e-06 // $x=1.385 $y=3.485 $x2=0 $y2=0
107 x1/x11/MP6:g X1/NET4:110 2.06013e-05 // $x=2.825 $y=3.485 $x2=0 $y2=0
108 GND:1016 X1/NET4:110 5.12317e-06 // $x=1.385 $y=2.66 $x2=0 $y2=0
109 GND:1018 X1/NET4:110 1.82853e-06 // $x=2.825 $y=2.66 $x2=0 $y2=0
110 GND:13 X1/NET4:118 4.07933e-06 // $x=8.62 $y=0.87 $x2=0 $y2=0
111 GND:369 X1/NET4:118 8.49893e-06 // $x=9.49 $y=0.152 $x2=0 $y2=0
112 x1/x11/MN1:s X1/NET4:118 1.20251e-05 // $x=4.82 $y=1.735 $x2=0 $y2=0
113 x1/x11/MP9:g x1/x11/MP5:g 5.73204e-05 // $x=1.385 $y=3.485 $x2=0 $y2=0
114 x1/x11/MP6:g x1/x11/MP5:g 3.30175e-06 // $x=2.825 $y=3.485 $x2=0 $y2=0
115 x1/x11/MP6:g x1/x11/MP7:g 5.66876e-05 // $x=2.825 $y=3.485 $x2=0 $y2=0
116 x1/x11/MP6:g x1/x11/MP8:g 5.68163e-05 // $x=2.825 $y=3.485 $x2=0 $y2=0
117 x1/x11/MP6:g x1/x11/MP4:g 3.07563e-06 // $x=2.825 $y=3.485 $x2=0 $y2=0
118 GND:14 X1/NET4:133 4.76824e-06 // $x=2.49 $y=0.87 $x2=0 $y2=0
119 GND:325 X1/NET4:133 6.08696e-06 // $x=2.295 $y=0.792 $x2=0 $y2=0
120 GND:776 X1/NET4:133 1.79209e-05 // $x=2.81 $y=2.5 $x2=0 $y2=0
121 GND:965 X1/NET4:133 3.97949e-05 // $x=1.385 $y=2.495 $x2=0 $y2=0
122 GND:970 X1/NET4:133 9.46585e-07 // $x=2.825 $y=2.495 $x2=0 $y2=0
123 x1/x11/MN9:s X1/NET4:133 1.05786e-05 // $x=1.94 $y=1.735 $x2=0 $y2=0
124 GND:14 X1/NET4:138 4.66103e-06 // $x=2.49 $y=0.87 $x2=0 $y2=0
125 GND:324 X1/NET4:138 5.14121e-06 // $x=3.94 $y=0.792 $x2=0 $y2=0
126 GND:325 X1/NET4:138 1.03847e-06 // $x=2.295 $y=0.792 $x2=0 $y2=0
127 GND:776 X1/NET4:138 1.28419e-05 // $x=2.81 $y=2.5 $x2=0 $y2=0
128 GND:965 X1/NET4:138 1.90594e-06 // $x=1.385 $y=2.495 $x2=0 $y2=0
129 GND:970 X1/NET4:138 3.88482e-05 // $x=2.825 $y=2.495 $x2=0 $y2=0
130 x1/x11/MN9:s X1/NET4:138 9.08904e-06 // $x=1.94 $y=1.735 $x2=0 $y2=0
131 GND:13 X1/NET4:143 4.0228e-06 // $x=8.62 $y=0.87 $x2=0 $y2=0
132 GND:167 X1/NET4:143 3.08767e-07 // $x=2.81 $y=2.5 $x2=0 $y2=0
133 GND:239 X1/NET4:143 8.48095e-07 // $x=2.947 $y=2.33 $x2=0 $y2=0
134 GND:324 X1/NET4:143 6.56939e-06 // $x=3.94 $y=0.792 $x2=0 $y2=0
135 GND:776 X1/NET4:143 1.30356e-06 // $x=2.81 $y=2.5 $x2=0 $y2=0
136 GND:970 X1/NET4:143 3.97683e-05 // $x=2.825 $y=2.495 $x2=0 $y2=0
137 GND:13 X1/NET4:148 3.46202e-06 // $x=8.62 $y=0.87 $x2=0 $y2=0
138 GND:324 X1/NET4:148 6.41094e-06 // $x=3.94 $y=0.792 $x2=0 $y2=0
139 x1/x11/MN5:s X1/NET4:148 1.15814e-05 // $x=3.86 $y=1.735 $x2=0 $y2=0
140 GND:13 X1/NET4:153 3.76796e-06 // $x=8.62 $y=0.87 $x2=0 $y2=0
141 GND:369 X1/NET4:153 6.04969e-06 // $x=9.49 $y=0.152 $x2=0 $y2=0
142 x1/x11/MN1:s X1/NET4:153 1.30203e-05 // $x=4.82 $y=1.735 $x2=0 $y2=0
143 GND:13 X1/NET4:158 5.87943e-06 // $x=8.62 $y=0.87 $x2=0 $y2=0
144 GND:369 X1/NET4:158 6.54284e-06 // $x=9.49 $y=0.152 $x2=0 $y2=0
145 GND:776 X1/NET4:164 6.91565e-06 // $x=2.81 $y=2.5 $x2=0 $y2=0
146 GND:1016 X1/NET4:164 4.3134e-05 // $x=1.385 $y=2.66 $x2=0 $y2=0
147 GND:776 X1/NET4:166 5.06261e-06 // $x=2.81 $y=2.5 $x2=0 $y2=0
148 GND:1018 X1/NET4:166 4.50744e-05 // $x=2.825 $y=2.66 $x2=0 $y2=0
149 GND:167 X1/NET4:168 6.83811e-07 // $x=2.81 $y=2.5 $x2=0 $y2=0
150 GND:253 X1/NET4:168 3.91556e-07 // $x=2.905 $y=2.46 $x2=0 $y2=0
151 GND:324 X1/NET4:168 1.03105e-06 // $x=3.94 $y=0.792 $x2=0 $y2=0
152 GND:776 X1/NET4:168 1.89087e-06 // $x=2.81 $y=2.5 $x2=0 $y2=0
153 GND:1018 X1/NET4:168 4.40697e-05 // $x=2.825 $y=2.66 $x2=0 $y2=0
154 GND:324 X1/NET4:170 1.1164e-06 // $x=3.94 $y=0.792 $x2=0 $y2=0
155 GND:1018 X1/NET4:170 1.00581e-06 // $x=2.825 $y=2.66 $x2=0 $y2=0
156 GND:13 X1/NET4:174 4.25817e-07 // $x=8.62 $y=0.87 $x2=0 $y2=0
157 GND:369 X1/NET4:174 1.48648e-06 // $x=9.49 $y=0.152 $x2=0 $y2=0
158 GND:28 x1/x8/MP1:d 7.18263e-07 // $x=5.78 $y=8.575 $x2=0 $y2=0
159 GND:172 x1/x8/MP1:d 7.17829e-06 // $x=5.78 $y=6.4 $x2=0 $y2=0
160 GND:355 x1/x8/MP1:d 4.47144e-06 // $x=6.01 $y=6.4 $x2=0 $y2=0
161 GND:781 x1/x8/MP1:d 7.25677e-05 // $x=5.982 $y=6.245 $x2=0 $y2=0
162 x1/x8/MP1:s x1/x8/MP1:d 5.35635e-05 // $x=5.83 $y=5.015 $x2=0 $y2=0
163 GND:13 X1/NET9:4 5.95293e-06 // $x=8.62 $y=0.87 $x2=4.475 $y2=3.395
164 GND:13 X1/NET9:6 0.000110535 // $x=8.62 $y=0.87 $x2=0 $y2=0
165 GND:177 X1/NET9:6 1.92394e-05 // $x=9.49 $y=0.87 $x2=0 $y2=0
166 GND:369 X1/NET9:6 3.82615e-06 // $x=9.49 $y=0.152 $x2=0 $y2=0
167 x1/x11/MN12:d X1/NET9:6 1.01735e-05 // $x=7.7 $y=1.735 $x2=0 $y2=0
168 x1/x11/MN14:d X1/NET9:6 6.85963e-06 // $x=8.66 $y=1.735 $x2=0 $y2=0
169 GND:177 X1/NET9:26 8.49873e-07 // $x=9.49 $y=0.87 $x2=0 $y2=0
170 GND:369 X1/NET9:26 2.76817e-06 // $x=9.49 $y=0.152 $x2=0 $y2=0
171 x1/x11/MN14:d X1/NET9:26 1.68843e-05 // $x=8.66 $y=1.735 $x2=0 $y2=0
172 GND:13 X1/NET9:31 2.47044e-06 // $x=8.62 $y=0.87 $x2=4.34 $y2=2.985
173 GND:177 X1/NET9:31 2.66361e-06 // $x=9.49 $y=0.87 $x2=4.34 $y2=2.985
174 GND:369 X1/NET9:31 6.51501e-06 // $x=9.49 $y=0.152 $x2=4.34 $y2=2.985
175 x1/x11/MN14:d X1/NET9:31 1.24244e-05 // $x=8.66 $y=1.735 $x2=4.34 $y2=2.985
176 GND:369 X1/NET9:37 9.50819e-07 // $x=9.49 $y=0.152 $x2=0 $y2=0
177 GND:13 x1/x11/MN11:d 1.04508e-05 // $x=8.62 $y=0.87 $x2=0 $y2=0
178 GND:369 x1/x11/MN11:d 2.56633e-05 // $x=9.49 $y=0.152 $x2=0 $y2=0
179 x1/x11/MN2:d x1/x11/MN11:d 1.8397e-05 // $x=6.74 $y=1.735 $x2=0 $y2=0
180 x1/x11/MN12:d x1/x11/MN11:d 2.37121e-05 // $x=7.7 $y=1.735 $x2=0 $y2=0
181 GND:13 X1/NET1:1 1.88885e-06 // $x=8.62 $y=0.87 $x2=4.45 $y2=3.395
182 GND:177 X1/NET1:1 6.01613e-07 // $x=9.49 $y=0.87 $x2=4.45 $y2=3.395
183 GND:180 X1/NET1:8 2.089e-05 // $x=16.01 $y=0.87 $x2=3.86 $y2=2.355
184 x1/x11/MN14:d X1/NET1:8 9.04328e-07 // $x=8.66 $y=1.735 $x2=3.86 $y2=2.355
185 GND:180 X1/NET1:15 2.23616e-07 // $x=16.01 $y=0.87 $x2=4.45 $y2=3.395
186 x1/x3/MN2:s X1/NET1:24 1.11049e-06 // $x=10.515 $y=0.575 $x2=0 $y2=0
187 GND:13 X1/NET1:28 1.51293e-06 // $x=8.62 $y=0.87 $x2=4.475 $y2=3.39
188 GND:177 X1/NET1:28 2.91947e-05 // $x=9.49 $y=0.87 $x2=4.475 $y2=3.39
189 GND:13 X1/NET1:29 2.74592e-07 // $x=8.62 $y=0.87 $x2=4.34 $y2=1.735
190 GND:180 X1/NET1:32 9.62644e-06 // $x=16.01 $y=0.87 $x2=0 $y2=0
191 GND:13 X1/NET1:43 8.05907e-06 // $x=8.62 $y=0.87 $x2=0 $y2=0
192 x1/x11/MN14:d X1/NET1:43 7.10861e-07 // $x=8.66 $y=1.735 $x2=0 $y2=0
193 GND:29 X1/NET1:66 2.86039e-06 // $x=20.955 $y=8.727 $x2=0 $y2=0
194 GND:382 X1/NET1:66 1.21387e-05 // $x=13.3 $y=8.727 $x2=0 $y2=0
195 GND:396 X1/NET1:66 1.28014e-06 // $x=14.29 $y=8.727 $x2=0 $y2=0
196 x1/x2/MN2:s X1/NET1:66 1.87278e-06 // $x=10.515 $y=7.755 $x2=0 $y2=0
197 GND:177 X1/NET1:82 2.04215e-07 // $x=9.49 $y=0.87 $x2=0 $y2=0
198 GND:369 X1/NET1:82 3.2533e-07 // $x=9.49 $y=0.152 $x2=0 $y2=0
199 x1/x11/MN14:d X1/NET1:82 3.41946e-07 // $x=8.66 $y=1.735 $x2=0 $y2=0
200 GND:13 x1/x11/MN13:d 4.94412e-06 // $x=8.62 $y=0.87 $x2=0 $y2=0
201 GND:369 x1/x11/MN13:d 2.06098e-05 // $x=9.49 $y=0.152 $x2=0 $y2=0
202 x1/x11/MN12:d x1/x11/MN13:d 6.94512e-06 // $x=7.7 $y=1.735 $x2=0 $y2=0
203 x1/x11/MN14:d x1/x11/MN13:d 1.28311e-05 // $x=8.66 $y=1.735 $x2=0 $y2=0
204 GND:180 x1/x3/MN1:s 2.18283e-06 // $x=16.01 $y=0.87 $x2=0 $y2=0
205 GND:378 x1/x3/MN1:s 1.1298e-05 // $x=13.3 $y=0.152 $x2=0 $y2=0
206 GND:394 x1/x3/MN1:s 1.33082e-06 // $x=14.29 $y=0.152 $x2=0 $y2=0
207 x1/x4/MN0:s x1/x3/MN1:s 8.67204e-06 // $x=13.26 $y=0.575 $x2=0 $y2=0
208 GND:182 X2/NET8:8 2.00629e-06 // $x=18.07 $y=2.5 $x2=3.86 $y2=2.355
209 x2/x11/MN5:s X2/NET8:8 5.12045e-07 // $x=19.12 $y=1.735 $x2=3.86 $y2=2.355
210 GND:43 X2/NET8:14 4.45187e-06 // $x=23.88 $y=0.87 $x2=3.865 $y2=2.435
211 GND:241 X2/NET8:14 1.20058e-06 // $x=18.207 $y=2.33 $x2=3.865 $y2=2.435
212 GND:261 X2/NET8:14 3.69316e-05 // $x=18.165 $y=2.46 $x2=3.865 $y2=2.435
213 x2/x11/MN5:s X2/NET8:14 2.7711e-06 // $x=19.12 $y=1.735 $x2=3.865 $y2=2.435
214 GND:43 X2/NET8:22 9.12068e-06 // $x=23.88 $y=0.87 $x2=3.86 $y2=2.355
215 GND:182 X2/NET8:22 3.04239e-07 // $x=18.07 $y=2.5 $x2=3.86 $y2=2.355
216 GND:414 X2/NET8:22 3.07106e-06 // $x=19.2 $y=0.792 $x2=3.86 $y2=2.355
217 GND:459 X2/NET8:22 1.84286e-05 // $x=24.75 $y=0.152 $x2=3.86 $y2=2.355
218 GND:811 X2/NET8:22 1.14521e-06 // $x=18.07 $y=2.5 $x2=3.86 $y2=2.355
219 x2/x11/MN5:s X2/NET8:22 3.25385e-05 // $x=19.12 $y=1.735 $x2=3.86 $y2=2.355
220 x2/x11/MN1:s X2/NET8:22 3.83342e-06 // $x=20.08 $y=1.735 $x2=3.86 $y2=2.355
221 GND:43 x2/x11/MP0:s 7.04218e-07 // $x=23.88 $y=0.87 $x2=4.34 $y2=2.985
222 GND:43 X2/NET7:4 3.45095e-05 // $x=23.88 $y=0.87 $x2=4.475 $y2=3.395
223 GND:459 X2/NET7:4 1.05018e-06 // $x=24.75 $y=0.152 $x2=4.475 $y2=3.395
224 x2/x11/MN2:d X2/NET7:4 2.79461e-06 // $x=22 $y=1.735 $x2=4.475 $y2=3.395
225 GND:43 X2/NET7:26 3.58449e-06 // $x=23.88 $y=0.87 $x2=0 $y2=0
226 GND:459 X2/NET7:26 6.04001e-06 // $x=24.75 $y=0.152 $x2=0 $y2=0
227 x2/x11/MN1:s X2/NET7:26 9.03965e-06 // $x=20.08 $y=1.735 $x2=0 $y2=0
228 GND:459 X2/NET7:29 7.33874e-07 // $x=24.75 $y=0.152 $x2=4.34 $y2=1.735
229 GND:43 x2/x11/MN2:s 4.32741e-06 // $x=23.88 $y=0.87 $x2=4.34 $y2=2.985
230 GND:459 x2/x11/MN2:s 1.19923e-05 // $x=24.75 $y=0.152 $x2=4.34 $y2=2.985
231 x2/x11/MN1:s x2/x11/MN2:s 4.24083e-07 // $x=20.08 $y=1.735 $x2=4.34 $y2=2.985
232 x2/x11/MN2:d x2/x11/MN2:s 1.93177e-05 // $x=22 $y=1.735 $x2=4.34 $y2=2.985
233 GND:58 X2/NET4:1 2.74549e-05 // $x=21.04 $y=8.575 $x2=4.45 $y2=3.395
234 GND:59 X2/NET4:1 3.95891e-07 // $x=36.215 $y=8.727 $x2=4.45 $y2=3.395
235 GND:432 X2/NET4:1 5.8742e-07 // $x=25.815 $y=8.727 $x2=4.45 $y2=3.395
236 GND:445 X2/NET4:1 4.94875e-06 // $x=21.27 $y=6.4 $x2=4.45 $y2=3.395
237 GND:58 X2/NET4:2 1.83808e-05 // $x=21.04 $y=8.575 $x2=4.45 $y2=3.395
238 GND:445 X2/NET4:2 5.49277e-06 // $x=21.27 $y=6.4 $x2=4.45 $y2=3.395
239 GND:44 X2/NET4:4 8.64644e-06 // $x=17.75 $y=0.87 $x2=4.475 $y2=3.395
240 GND:182 X2/NET4:4 1.09772e-05 // $x=18.07 $y=2.5 $x2=4.475 $y2=3.395
241 GND:261 X2/NET4:4 3.6363e-05 // $x=18.165 $y=2.46 $x2=4.475 $y2=3.395
242 GND:414 X2/NET4:4 3.42168e-07 // $x=19.2 $y=0.792 $x2=4.475 $y2=3.395
243 GND:811 X2/NET4:4 5.81928e-06 // $x=18.07 $y=2.5 $x2=4.475 $y2=3.395
244 x2/x11/MP6:g X2/NET4:4 6.23735e-06 // $x=18.085 $y=3.485 $x2=4.475 $y2=3.395
245 GND:1022 X2/NET4:4 3.5647e-06 // $x=18.085 $y=2.66 $x2=4.475 $y2=3.395
246 GND:43 X2/NET4:5 3.22305e-06 // $x=23.88 $y=0.87 $x2=4.475 $y2=3.39
247 GND:182 X2/NET4:5 1.56036e-05 // $x=18.07 $y=2.5 $x2=4.475 $y2=3.39
248 GND:261 X2/NET4:5 1.29824e-06 // $x=18.165 $y=2.46 $x2=4.475 $y2=3.39
249 x2/x11/MP6:g X2/NET4:5 1.06976e-06 // $x=18.085 $y=3.485 $x2=4.475 $y2=3.39
250 GND:43 X2/NET4:6 6.34604e-07 // $x=23.88 $y=0.87 $x2=0 $y2=0
251 x2/x11/MN5:s X2/NET4:8 1.97151e-06 // $x=19.12 $y=1.735 $x2=3.86 $y2=2.355
252 GND:44 X2/NET4:13 5.54765e-06 // $x=17.75 $y=0.87 $x2=3.971 $y2=2.435
253 GND:811 X2/NET4:13 7.70348e-06 // $x=18.07 $y=2.5 $x2=3.971 $y2=2.435
254 x2/x11/MP9:g X2/NET4:13 1.73795e-06 // $x=16.645 $y=3.485 $x2=3.971 $y2=2.435
255 GND:1020 X2/NET4:13 8.40364e-07 // $x=16.645 $y=2.66 $x2=3.971 $y2=2.435
256 GND:182 X2/NET4:19 3.6879e-05 // $x=18.07 $y=2.5 $x2=0 $y2=0
257 GND:261 X2/NET4:19 6.19824e-06 // $x=18.165 $y=2.46 $x2=0 $y2=0
258 GND:811 X2/NET4:19 1.45795e-06 // $x=18.07 $y=2.5 $x2=0 $y2=0
259 GND:1022 X2/NET4:19 6.56674e-07 // $x=18.085 $y=2.66 $x2=0 $y2=0
260 GND:43 X2/NET4:23 1.05319e-06 // $x=23.88 $y=0.87 $x2=4.505 $y2=2.172
261 GND:43 X2/NET4:27 4.32936e-07 // $x=23.88 $y=0.87 $x2=4.51 $y2=3.39
262 x2/x11/MN1:s X2/NET4:27 1.25267e-06 // $x=20.08 $y=1.735 $x2=4.51 $y2=3.39
263 GND:58 X2/NET4:31 1.81291e-05 // $x=21.04 $y=8.575 $x2=4.34 $y2=2.985
264 GND:59 X2/NET4:31 8.48754e-06 // $x=36.215 $y=8.727 $x2=4.34 $y2=2.985
265 GND:432 X2/NET4:31 3.25882e-06 // $x=25.815 $y=8.727 $x2=4.34 $y2=2.985
266 GND:445 X2/NET4:31 5.2119e-06 // $x=21.27 $y=6.4 $x2=4.34 $y2=2.985
267 GND:43 X2/NET4:37 1.56984e-05 // $x=23.88 $y=0.87 $x2=0 $y2=0
268 x2/x11/MN5:s X2/NET4:37 8.03704e-07 // $x=19.12 $y=1.735 $x2=0 $y2=0
269 GND:43 X2/NET4:38 2.53447e-05 // $x=23.88 $y=0.87 $x2=0 $y2=0
270 GND:182 X2/NET4:38 5.06672e-06 // $x=18.07 $y=2.5 $x2=0 $y2=0
271 GND:241 X2/NET4:38 3.69243e-05 // $x=18.207 $y=2.33 $x2=0 $y2=0
272 GND:261 X2/NET4:38 4.55871e-05 // $x=18.165 $y=2.46 $x2=0 $y2=0
273 x2/x11/MN5:s X2/NET4:38 3.49302e-06 // $x=19.12 $y=1.735 $x2=0 $y2=0
274 GND:58 X2/NET4:40 1.03727e-05 // $x=21.04 $y=8.575 $x2=0 $y2=0
275 GND:44 X2/NET4:45 1.11625e-05 // $x=17.75 $y=0.87 $x2=0 $y2=0
276 GND:182 X2/NET4:45 6.62665e-07 // $x=18.07 $y=2.5 $x2=0 $y2=0
277 GND:261 X2/NET4:45 1.44924e-06 // $x=18.165 $y=2.46 $x2=0 $y2=0
278 GND:811 X2/NET4:45 9.60988e-06 // $x=18.07 $y=2.5 $x2=0 $y2=0
279 GND:43 X2/NET4:51 4.96059e-05 // $x=23.88 $y=0.87 $x2=0 $y2=0
280 GND:241 X2/NET4:51 1.08462e-06 // $x=18.207 $y=2.33 $x2=0 $y2=0
281 x2/x11/MN5:s X2/NET4:51 1.52635e-06 // $x=19.12 $y=1.735 $x2=0 $y2=0
282 x2/x11/MN1:s X2/NET4:51 4.92767e-06 // $x=20.08 $y=1.735 $x2=0 $y2=0
283 GND:44 X2/NET4:58 1.33991e-05 // $x=17.75 $y=0.87 $x2=0 $y2=0
284 GND:261 X2/NET4:58 8.13487e-05 // $x=18.165 $y=2.46 $x2=0 $y2=0
285 GND:811 X2/NET4:58 1.25802e-05 // $x=18.07 $y=2.5 $x2=0 $y2=0
286 x2/x11/MN9:s X2/NET4:58 3.27034e-06 // $x=17.2 $y=1.735 $x2=0 $y2=0
287 GND:257 X2/NET4:60 3.9172e-06 // $x=18.21 $y=1.13 $x2=0 $y2=0
288 GND:261 X2/NET4:60 2.44434e-05 // $x=18.165 $y=2.46 $x2=0 $y2=0
289 GND:58 X2/NET4:71 9.51924e-06 // $x=21.04 $y=8.575 $x2=0 $y2=0
290 GND:187 X2/NET4:71 9.16761e-06 // $x=21.04 $y=6.4 $x2=0 $y2=0
291 GND:816 X2/NET4:71 5.62835e-06 // $x=21.242 $y=6.245 $x2=0 $y2=0
292 x2/x8/MP1:s X2/NET4:71 1.04126e-05 // $x=21.09 $y=5.015 $x2=0 $y2=0
293 GND:43 X2/NET4:77 2.10054e-05 // $x=23.88 $y=0.87 $x2=0 $y2=0
294 x2/x11/MN1:s X2/NET4:77 2.41475e-06 // $x=20.08 $y=1.735 $x2=0 $y2=0
295 GND:261 X2/NET4:81 5.52112e-06 // $x=18.165 $y=2.46 $x2=0 $y2=0
296 GND:58 X2/NET4:94 7.18263e-07 // $x=21.04 $y=8.575 $x2=0 $y2=0
297 GND:59 X2/NET4:94 2.15467e-06 // $x=36.215 $y=8.727 $x2=0 $y2=0
298 GND:432 X2/NET4:94 1.39846e-05 // $x=25.815 $y=8.727 $x2=0 $y2=0
299 GND:443 X2/NET4:94 1.62681e-05 // $x=21.27 $y=7.855 $x2=0 $y2=0
300 GND:445 X2/NET4:94 1.745e-05 // $x=21.27 $y=6.4 $x2=0 $y2=0
301 GND:44 X2/NET4:100 2.58606e-07 // $x=17.75 $y=0.87 $x2=0 $y2=0
302 GND:182 X2/NET4:100 1.28889e-06 // $x=18.07 $y=2.5 $x2=0 $y2=0
303 GND:811 X2/NET4:100 3.4882e-05 // $x=18.07 $y=2.5 $x2=0 $y2=0
304 GND:1022 X2/NET4:100 1.80773e-06 // $x=18.085 $y=2.66 $x2=0 $y2=0
305 GND:182 X2/NET4:104 1.96769e-06 // $x=18.07 $y=2.5 $x2=0 $y2=0
306 GND:261 X2/NET4:104 1.00164e-06 // $x=18.165 $y=2.46 $x2=0 $y2=0
307 GND:414 X2/NET4:104 1.80477e-06 // $x=19.2 $y=0.792 $x2=0 $y2=0
308 GND:811 X2/NET4:104 1.43076e-05 // $x=18.07 $y=2.5 $x2=0 $y2=0
309 GND:43 X2/NET4:110 1.54802e-06 // $x=23.88 $y=0.87 $x2=0 $y2=0
310 GND:414 X2/NET4:110 3.8706e-06 // $x=19.2 $y=0.792 $x2=0 $y2=0
311 GND:811 X2/NET4:110 5.36812e-06 // $x=18.07 $y=2.5 $x2=0 $y2=0
312 x2/x11/MP9:g X2/NET4:110 2.69329e-06 // $x=16.645 $y=3.485 $x2=0 $y2=0
313 x2/x11/MP6:g X2/NET4:110 1.76812e-05 // $x=18.085 $y=3.485 $x2=0 $y2=0
314 GND:1020 X2/NET4:110 5.12317e-06 // $x=16.645 $y=2.66 $x2=0 $y2=0
315 GND:1022 X2/NET4:110 1.82853e-06 // $x=18.085 $y=2.66 $x2=0 $y2=0
316 GND:43 X2/NET4:118 6.30655e-06 // $x=23.88 $y=0.87 $x2=0 $y2=0
317 GND:459 X2/NET4:118 7.13176e-06 // $x=24.75 $y=0.152 $x2=0 $y2=0
318 x2/x11/MP9:g x2/x11/MP5:g 5.73204e-05 // $x=16.645 $y=3.485 $x2=0 $y2=0
319 x2/x11/MP6:g x2/x11/MP5:g 3.30175e-06 // $x=18.085 $y=3.485 $x2=0 $y2=0
320 x2/x11/MP6:g x2/x11/MP7:g 5.66876e-05 // $x=18.085 $y=3.485 $x2=0 $y2=0
321 x2/x11/MP6:g x2/x11/MP8:g 5.68163e-05 // $x=18.085 $y=3.485 $x2=0 $y2=0
322 x2/x11/MP6:g x2/x11/MP4:g 3.07563e-06 // $x=18.085 $y=3.485 $x2=0 $y2=0
323 GND:44 X2/NET4:133 4.76824e-06 // $x=17.75 $y=0.87 $x2=0 $y2=0
324 GND:415 X2/NET4:133 6.08696e-06 // $x=17.555 $y=0.792 $x2=0 $y2=0
325 GND:811 X2/NET4:133 2.96833e-05 // $x=18.07 $y=2.5 $x2=0 $y2=0
326 GND:975 X2/NET4:133 3.97949e-05 // $x=16.645 $y=2.495 $x2=0 $y2=0
327 GND:980 X2/NET4:133 9.46585e-07 // $x=18.085 $y=2.495 $x2=0 $y2=0
328 x2/x11/MN9:s X2/NET4:133 1.05786e-05 // $x=17.2 $y=1.735 $x2=0 $y2=0
329 GND:44 X2/NET4:138 4.66103e-06 // $x=17.75 $y=0.87 $x2=0 $y2=0
330 GND:414 X2/NET4:138 5.14121e-06 // $x=19.2 $y=0.792 $x2=0 $y2=0
331 GND:415 X2/NET4:138 1.03847e-06 // $x=17.555 $y=0.792 $x2=0 $y2=0
332 GND:811 X2/NET4:138 1.34102e-05 // $x=18.07 $y=2.5 $x2=0 $y2=0
333 GND:975 X2/NET4:138 1.90594e-06 // $x=16.645 $y=2.495 $x2=0 $y2=0
334 GND:980 X2/NET4:138 3.88482e-05 // $x=18.085 $y=2.495 $x2=0 $y2=0
335 x2/x11/MN9:s X2/NET4:138 9.08904e-06 // $x=17.2 $y=1.735 $x2=0 $y2=0
336 GND:43 X2/NET4:143 4.0228e-06 // $x=23.88 $y=0.87 $x2=0 $y2=0
337 GND:182 X2/NET4:143 3.08767e-07 // $x=18.07 $y=2.5 $x2=0 $y2=0
338 GND:241 X2/NET4:143 8.48095e-07 // $x=18.207 $y=2.33 $x2=0 $y2=0
339 GND:414 X2/NET4:143 6.56939e-06 // $x=19.2 $y=0.792 $x2=0 $y2=0
340 GND:811 X2/NET4:143 1.30356e-06 // $x=18.07 $y=2.5 $x2=0 $y2=0
341 GND:980 X2/NET4:143 3.97683e-05 // $x=18.085 $y=2.495 $x2=0 $y2=0
342 GND:43 X2/NET4:148 3.46202e-06 // $x=23.88 $y=0.87 $x2=0 $y2=0
343 GND:414 X2/NET4:148 6.41094e-06 // $x=19.2 $y=0.792 $x2=0 $y2=0
344 x2/x11/MN5:s X2/NET4:148 1.15814e-05 // $x=19.12 $y=1.735 $x2=0 $y2=0
345 GND:43 X2/NET4:153 3.76796e-06 // $x=23.88 $y=0.87 $x2=0 $y2=0
346 GND:459 X2/NET4:153 6.04969e-06 // $x=24.75 $y=0.152 $x2=0 $y2=0
347 x2/x11/MN1:s X2/NET4:153 1.30203e-05 // $x=20.08 $y=1.735 $x2=0 $y2=0
348 GND:43 X2/NET4:158 5.87943e-06 // $x=23.88 $y=0.87 $x2=0 $y2=0
349 GND:459 X2/NET4:158 6.54284e-06 // $x=24.75 $y=0.152 $x2=0 $y2=0
350 GND:811 X2/NET4:164 7.36536e-06 // $x=18.07 $y=2.5 $x2=0 $y2=0
351 GND:1020 X2/NET4:164 4.3134e-05 // $x=16.645 $y=2.66 $x2=0 $y2=0
352 GND:811 X2/NET4:166 5.06261e-06 // $x=18.07 $y=2.5 $x2=0 $y2=0
353 GND:1022 X2/NET4:166 4.50744e-05 // $x=18.085 $y=2.66 $x2=0 $y2=0
354 GND:182 X2/NET4:168 6.83811e-07 // $x=18.07 $y=2.5 $x2=0 $y2=0
355 GND:261 X2/NET4:168 3.91556e-07 // $x=18.165 $y=2.46 $x2=0 $y2=0
356 GND:414 X2/NET4:168 1.03105e-06 // $x=19.2 $y=0.792 $x2=0 $y2=0
357 GND:811 X2/NET4:168 1.89087e-06 // $x=18.07 $y=2.5 $x2=0 $y2=0
358 GND:1022 X2/NET4:168 4.40697e-05 // $x=18.085 $y=2.66 $x2=0 $y2=0
359 GND:414 X2/NET4:170 1.1164e-06 // $x=19.2 $y=0.792 $x2=0 $y2=0
360 GND:1022 X2/NET4:170 1.00581e-06 // $x=18.085 $y=2.66 $x2=0 $y2=0
361 GND:43 X2/NET4:174 4.25817e-07 // $x=23.88 $y=0.87 $x2=0 $y2=0
362 GND:459 X2/NET4:174 1.48648e-06 // $x=24.75 $y=0.152 $x2=0 $y2=0
363 GND:58 x2/x8/MP1:d 7.18263e-07 // $x=21.04 $y=8.575 $x2=0 $y2=0
364 GND:187 x2/x8/MP1:d 7.17829e-06 // $x=21.04 $y=6.4 $x2=0 $y2=0
365 GND:445 x2/x8/MP1:d 4.47144e-06 // $x=21.27 $y=6.4 $x2=0 $y2=0
366 GND:816 x2/x8/MP1:d 7.25449e-05 // $x=21.242 $y=6.245 $x2=0 $y2=0
367 x2/x8/MP1:s x2/x8/MP1:d 5.35635e-05 // $x=21.09 $y=5.015 $x2=0 $y2=0
368 GND:43 X2/NET9:4 5.95293e-06 // $x=23.88 $y=0.87 $x2=4.475 $y2=3.395
369 GND:43 X2/NET9:6 9.24387e-05 // $x=23.88 $y=0.87 $x2=0 $y2=0
370 GND:192 X2/NET9:6 1.92393e-05 // $x=24.75 $y=0.87 $x2=0 $y2=0
371 GND:459 X2/NET9:6 5.85368e-06 // $x=24.75 $y=0.152 $x2=0 $y2=0
372 x2/x11/MN12:d X2/NET9:6 1.01735e-05 // $x=22.96 $y=1.735 $x2=0 $y2=0
373 x2/x11/MN14:d X2/NET9:6 6.85963e-06 // $x=23.92 $y=1.735 $x2=0 $y2=0
374 GND:192 X2/NET9:26 8.49873e-07 // $x=24.75 $y=0.87 $x2=0 $y2=0
375 GND:459 X2/NET9:26 2.76817e-06 // $x=24.75 $y=0.152 $x2=0 $y2=0
376 x2/x11/MN14:d X2/NET9:26 1.68843e-05 // $x=23.92 $y=1.735 $x2=0 $y2=0
377 GND:43 X2/NET9:31 2.47044e-06 // $x=23.88 $y=0.87 $x2=4.34 $y2=2.985
378 GND:192 X2/NET9:31 2.66361e-06 // $x=24.75 $y=0.87 $x2=4.34 $y2=2.985
379 GND:459 X2/NET9:31 6.51501e-06 // $x=24.75 $y=0.152 $x2=4.34 $y2=2.985
380 x2/x11/MN14:d X2/NET9:31 1.24244e-05 // $x=23.92 $y=1.735 $x2=4.34 $y2=2.985
381 GND:459 X2/NET9:37 9.50819e-07 // $x=24.75 $y=0.152 $x2=0 $y2=0
382 GND:43 x2/x11/MN11:d 1.04507e-05 // $x=23.88 $y=0.87 $x2=0 $y2=0
383 GND:459 x2/x11/MN11:d 2.56633e-05 // $x=24.75 $y=0.152 $x2=0 $y2=0
384 x2/x11/MN2:d x2/x11/MN11:d 1.8397e-05 // $x=22 $y=1.735 $x2=0 $y2=0
385 x2/x11/MN12:d x2/x11/MN11:d 2.37121e-05 // $x=22.96 $y=1.735 $x2=0 $y2=0
386 GND:43 X2/NET1:1 1.88885e-06 // $x=23.88 $y=0.87 $x2=4.45 $y2=3.395