*SPEF "2.0"
*DESIGN "SKY130_OSU_RING_OSCILLATOR_MPR2YA_8"
*DATE "Fri Oct 27 10:31:32 2023"
*VENDOR "Mentor Graphics Corp."
*PROGRAM "Calibre xRC"
*VERSION "v2023.2_27.15"
*DESIGN_FLOW "extraction"
*DIVIDER /
*DELIMITER :
*BUS_DELIMITER []
*T_UNIT 1 NS
*C_UNIT 1 PF
*R_UNIT 1 OHM
*L_UNIT 1 HENRY



// CIRCUIT TEMPERATURE 30C
// NOMINAL TEMPERATURE 30C

*PORTS 
 X5_Y1 B
 VDD B
 X4_Y1 B
 X3_Y1 B
 X2_Y1 B
 X1_Y1 B
 GND B
 S5 B
 S4 B
 S3 B
 S2 B
 S1 B

*D_NET X1/NET7 0.00173856
*CONN
*I x1/x1/MN9:g I 
*I x1/x1/MN5:g I 
*I x1/x1/MP8:g I 
*I x1/x1/MP4:g I 

*CAP
0 X1/NET7:16 NET5:4 2.40599e-06 // $x=1.885 $y=2.87 $x2=2.81 $y2=2.5
1 X1/NET7:16 NET5:43 8.88043e-05 // $x=1.885 $y=2.87 $x2=2.905 $y2=2.46
2 X1/NET7:16 NET5:98 3.57405e-05 // $x=1.885 $y=2.87 $x2=2.81 $y2=2.5
3 X1/NET7:23 NET5:98 1.97748e-05 // $x=1.865 $y=2.495 $x2=2.81 $y2=2.5
4 X1/NET7:34 NET5:98 4.81843e-06 // $x=1.865 $y=2.66 $x2=2.81 $y2=2.5
5 X1/NET7:16 x1/x1/MP9:g 4.43233e-06 // $x=1.885 $y=2.87 $x2=1.385 $y2=3.485
6 x1/x1/MP8:g x1/x1/MP9:g 5.73233e-05 // $x=1.865 $y=3.485 $x2=1.385 $y2=3.485
7 X1/NET7:16 x1/x1/MP6:g 1.92398e-05 // $x=1.885 $y=2.87 $x2=2.825 $y2=3.485
8 x1/x1/MP8:g x1/x1/MP6:g 3.25936e-06 // $x=1.865 $y=3.485 $x2=2.825 $y2=3.485
9 x1/x1/MP4:g x1/x1/MP6:g 2.97084e-06 // $x=3.785 $y=3.485 $x2=2.825 $y2=3.485
10 X1/NET7:23 NET5:109 3.97949e-05 // $x=1.865 $y=2.495 $x2=1.385 $y2=2.495
11 X1/NET7:23 NET5:114 2.06176e-06 // $x=1.865 $y=2.495 $x2=2.825 $y2=2.495
12 X1/NET7:16 NET5:120 5.96354e-06 // $x=1.885 $y=2.87 $x2=1.385 $y2=2.66
13 X1/NET7:34 NET5:120 4.3134e-05 // $x=1.865 $y=2.66 $x2=1.385 $y2=2.66
14 X1/NET7:36 NET5:122 1.09555e-06 // $x=3.785 $y=2.66 $x2=2.825 $y2=2.66
15 X1/NET7:16 X1/NET1:12 2.2913e-06 // $x=1.885 $y=2.87 $x2=12.45 $y2=2.11
16 X1/NET7:28 X1/NET1:12 1.58074e-06 // $x=3.785 $y=2.495 $x2=12.45 $y2=2.11
17 X1/NET7:36 X1/NET1:12 2.81944e-06 // $x=3.785 $y=2.66 $x2=12.45 $y2=2.11
18 X1/NET7:16 X1/NET1:45 9.55591e-06 // $x=1.885 $y=2.87 $x2=0 $y2=0
19 x1/x1/MP4:g X1/NET1:45 2.56355e-06 // $x=3.785 $y=3.485 $x2=0 $y2=0
20 X1/NET7:28 X1/NET1:45 1.17604e-06 // $x=3.785 $y=2.495 $x2=0 $y2=0
21 X1/NET7:36 X1/NET1:45 8.91845e-07 // $x=3.785 $y=2.66 $x2=0 $y2=0
22 X1/NET7:16 X1/NET1:63 2.23667e-06 // $x=1.885 $y=2.87 $x2=0 $y2=0
23 X1/NET7:16 X1/NET1:85 1.28767e-05 // $x=1.885 $y=2.87 $x2=0 $y2=0
24 X1/NET7:28 X1/NET1:85 1.08166e-05 // $x=3.785 $y=2.495 $x2=0 $y2=0
25 X1/NET7:36 X1/NET1:85 5.34792e-06 // $x=3.785 $y=2.66 $x2=0 $y2=0
26 X1/NET7:16 X1/NET11:2 1.12636e-06 // $x=1.885 $y=2.87 $x2=75.845 $y2=2.365
27 X1/NET7:28 X1/NET11:2 4.68454e-07 // $x=3.785 $y=2.495 $x2=75.845 $y2=2.365
28 X1/NET7:28 X1/NET11:10 2.45499e-06 // $x=3.785 $y=2.495 $x2=11.69 $y2=6.445
29 X1/NET7:16 X1/NET11:22 9.13716e-06 // $x=1.885 $y=2.87 $x2=2.952 $y2=0.9
30 X1/NET7:28 X1/NET11:22 4.29379e-07 // $x=3.785 $y=2.495 $x2=2.952 $y2=0.9
31 X1/NET7:36 X1/NET11:22 2.02702e-06 // $x=3.785 $y=2.66 $x2=2.952 $y2=0.9
32 X1/NET7:16 x1/x1/MP5:g 1.46458e-05 // $x=1.885 $y=2.87 $x2=10.065 $y2=0.277
33 x1/x1/MP4:g x1/x1/MP5:g 5.53336e-05 // $x=3.785 $y=3.485 $x2=10.065 $y2=0.277
34 X1/NET7:28 X1/NET11:33 4.04622e-05 // $x=3.785 $y=2.495 $x2=10.065 $y2=2.11
35 X1/NET7:16 X1/NET11:44 9.70172e-06 // $x=1.885 $y=2.87 $x2=0 $y2=0
36 X1/NET7:36 X1/NET11:44 4.14582e-05 // $x=3.785 $y=2.66 $x2=0 $y2=0
37 X1/NET7:16 X1/NET9:2 3.4338e-05 // $x=1.885 $y=2.87 $x2=75.845 $y2=2.365
38 X1/NET7:34 X1/NET9:2 1.49458e-06 // $x=1.865 $y=2.66 $x2=75.845 $y2=2.365
39 X1/NET7:16 X1/NET9:3 6.36443e-05 // $x=1.885 $y=2.87 $x2=2.81 $y2=2.482
40 x1/x1/MP4:g X1/NET9:3 5.02622e-06 // $x=3.785 $y=3.485 $x2=2.81 $y2=2.482
41 X1/NET7:16 X1/NET9:25 2.63596e-05 // $x=1.885 $y=2.87 $x2=3.03 $y2=0.815
42 X1/NET7:34 X1/NET9:25 5.86088e-06 // $x=1.865 $y=2.66 $x2=3.03 $y2=0.815
43 X1/NET7:16 x1/x1/MP7:g 9.4175e-06 // $x=1.885 $y=2.87 $x2=11.645 $y2=6.045
44 x1/x1/MP8:g x1/x1/MP7:g 5.66027e-05 // $x=1.865 $y=3.485 $x2=11.645 $y2=6.045
45 X1/NET7:23 X1/NET9:36 3.71695e-05 // $x=1.865 $y=2.495 $x2=12.36 $y2=5.782
46 X1/NET7:16 X1/NET9:47 6.57484e-06 // $x=1.885 $y=2.87 $x2=11.69 $y2=6.445
47 X1/NET7:34 X1/NET9:47 4.41177e-05 // $x=1.865 $y=2.66 $x2=11.69 $y2=6.445
48 X1/NET7:28 X1/NET6:26 1.15316e-06 // $x=3.785 $y=2.495 $x2=9.98 $y2=0.9
49 X1/NET7:28 X1/X1/NET9:6 6.90314e-06 // $x=3.785 $y=2.495 $x2=2.905 $y2=2.46
50 X1/NET7:16 X1/X1/NET9:15 7.8549e-05 // $x=1.885 $y=2.87 $x2=75.845 $y2=2.48
51 X1/NET7:16 x1/x1/MP7:s 2.69168e-07 // $x=1.885 $y=2.87 $x2=0 $y2=0
52 X1/NET7:16 X1/X1/NET2:2 2.6627e-06 // $x=1.885 $y=2.87 $x2=75.845 $y2=2.365
53 X1/NET7:36 X1/X1/NET2:2 2.68715e-06 // $x=3.785 $y=2.66 $x2=75.845 $y2=2.365
54 X1/NET7:16 X1/X1/NET2:26 1.26253e-05 // $x=1.885 $y=2.87 $x2=9.98 $y2=0.9
55 X1/NET7:36 X1/X1/NET2:26 3.33619e-06 // $x=3.785 $y=2.66 $x2=9.98 $y2=0.9
56 x1/x1/MP4:g x1/x1/MP0:g 5.94335e-05 // $x=3.785 $y=3.485 $x2=2.905 $y2=2.46
57 X1/NET7:28 X1/X1/NET2:45 3.86397e-05 // $x=3.785 $y=2.495 $x2=0 $y2=0
58 X1/NET7:16 X1/X1/NET2:56 1.93927e-06 // $x=1.885 $y=2.87 $x2=12.48 $y2=2.14
59 X1/NET7:36 X1/X1/NET2:56 4.63778e-05 // $x=3.785 $y=2.66 $x2=12.48 $y2=2.14
60 X1/NET7:16 X1/X1/NET13:4 3.92202e-06 // $x=1.885 $y=2.87 $x2=2.81 $y2=2.5
61 X1/NET7:16 X1/X1/NET13:5 1.6536e-06 // $x=1.885 $y=2.87 $x2=2.905 $y2=2.482
62 X1/NET7:16 X1/X1/NET13:6 5.42572e-06 // $x=1.885 $y=2.87 $x2=2.905 $y2=2.46
63 x1/x1/MP8:g X1/X1/NET13:6 6.9761e-06 // $x=1.865 $y=3.485 $x2=2.905 $y2=2.46
64 X1/NET7:16 X1/X1/NET13:9 5.27957e-07 // $x=1.885 $y=2.87 $x2=11.69 $y2=6.442
65 X1/NET7:16 X1/X1/NET13:11 6.41649e-07 // $x=1.885 $y=2.87 $x2=12.45 $y2=2.14
66 X1/NET7:16 X1/X1/NET13:14 2.23991e-05 // $x=1.885 $y=2.87 $x2=12.48 $y2=2.14
67 x1/x1/MP8:g X1/X1/NET13:14 6.36171e-07 // $x=1.865 $y=3.485 $x2=12.48 $y2=2.14
68 X1/NET7:16 X1/X1/NET13:16 5.10304e-06 // $x=1.885 $y=2.87 $x2=75.845 $y2=2.48
69 x1/x1/MP4:g X1/X1/NET13:16 6.15112e-06 // $x=3.785 $y=3.485 $x2=75.845 $y2=2.48
70 x1/x1/MP4:g X1/X1/NET13:24 4.56029e-07 // $x=3.785 $y=3.485 $x2=9.895 $y2=0.815
71 x1/x1/MP4:g x1/x1/MP4:s 7.66322e-06 // $x=3.785 $y=3.485 $x2=12.45 $y2=0.755
72 X1/NET7:16 GND:29 3.87951e-06 // $x=1.885 $y=2.87 $x2=9.982 $y2=0.73
73 X1/NET7:28 GND:29 3.46749e-06 // $x=3.785 $y=2.495 $x2=9.982 $y2=0.73
74 X1/NET7:16 GND:30 2.7745e-05 // $x=1.885 $y=2.87 $x2=75.765 $y2=0.277
75 X1/NET7:23 GND:30 4.77372e-06 // $x=1.865 $y=2.495 $x2=75.765 $y2=0.277
76 X1/NET7:16 GND:157 2.16007e-06 // $x=1.885 $y=2.87 $x2=0 $y2=0
77 X1/NET7:28 GND:157 6.41094e-06 // $x=3.785 $y=2.495 $x2=0 $y2=0
78 X1/NET7:36 GND:157 1.14363e-06 // $x=3.785 $y=2.66 $x2=0 $y2=0
79 X1/NET7:23 GND:158 6.08696e-06 // $x=1.865 $y=2.495 $x2=0 $y2=0
80 X1/NET7:16 x1/x1/MN9:s 2.86429e-06 // $x=1.885 $y=2.87 $x2=0 $y2=0
81 X1/NET7:23 x1/x1/MN9:s 8.98711e-06 // $x=1.865 $y=2.495 $x2=0 $y2=0
82 X1/NET7:28 x1/x1/MN5:s 9.72354e-06 // $x=3.785 $y=2.495 $x2=0 $y2=0
83 X1/NET7:16 VDD:5 6.43757e-06 // $x=1.885 $y=2.87 $x2=2.905 $y2=2.482
84 x1/x1/MP8:g VDD:5 5.19326e-06 // $x=1.865 $y=3.485 $x2=2.905 $y2=2.482
85 x1/x1/MP4:g VDD:5 5.23687e-06 // $x=3.785 $y=3.485 $x2=2.905 $y2=2.482
86 X1/NET7:16 VDD:165 4.2566e-06 // $x=1.885 $y=2.87 $x2=0 $y2=0
87 x1/x1/MP8:g VDD:165 6.42835e-06 // $x=1.865 $y=3.485 $x2=0 $y2=0
88 X1/NET7:34 VDD:165 2.22387e-07 // $x=1.865 $y=2.66 $x2=0 $y2=0
89 X1/NET7:16 VDD:175 1.03111e-06 // $x=1.885 $y=2.87 $x2=0 $y2=0
90 x1/x1/MP4:g VDD:175 6.66076e-06 // $x=3.785 $y=3.485 $x2=0 $y2=0
91 X1/NET7:36 VDD:175 4.44775e-07 // $x=3.785 $y=2.66 $x2=0 $y2=0
92 x1/x1/MP8:g x1/x1/MP9:s 1.14393e-05 // $x=1.865 $y=3.485 $x2=0 $y2=0
93 x1/x1/MP4:g x1/x1/MP5:s 8.25149e-06 // $x=3.785 $y=3.485 $x2=0 $y2=0
94 X1/NET7:16 x1/x1/MP8:s 5.3243e-05 // $x=1.885 $y=2.87 $x2=2.905 $y2=2.482
95 x1/x1/MP8:g x1/x1/MP8:s 5.79506e-06 // $x=1.865 $y=3.485 $x2=2.905 $y2=2.482
96 X1/NET7:36 2.48269e-05 // $x=3.785 $y=2.66
97 X1/NET7:34 2.64339e-05 // $x=1.865 $y=2.66
98 X1/NET7:28 4.6449e-05 // $x=3.785 $y=2.495
99 X1/NET7:23 4.57883e-05 // $x=1.865 $y=2.495
100 x1/x1/MP4:g 6.52288e-05 // $x=3.785 $y=3.485
101 x1/x1/MP8:g 6.50807e-05 // $x=1.865 $y=3.485
102 X1/NET7:16 0.000105915 // $x=1.885 $y=2.87

*RES
103 X1/NET7:30 X1/NET7:36 52.7279 // $w=0.214 $lvl=ply $x=3.785 $y=2.825 $x2=3.785 $y2=2.66 $l=0.165
104 X1/NET7:28 X1/NET7:36 52.7279 // $w=0.214 $lvl=ply $x=3.785 $y=2.495 $x2=3.785 $y2=2.66 $l=0.165
105 X1/NET7:25 X1/NET7:34 52.7279 // $w=0.214 $lvl=ply $x=1.865 $y=2.825 $x2=1.865 $y2=2.66 $l=0.165
106 X1/NET7:23 X1/NET7:34 52.7279 // $w=0.214 $lvl=ply $x=1.865 $y=2.495 $x2=1.865 $y2=2.66 $l=0.165
107 x1/x1/MP4:g X1/NET7:30 338.426 // $w=0.094 $lvl=ply $x=3.785 $y=3.485 $x2=3.785 $y2=2.825 $l=0.66
108 x1/x1/MP8:g X1/NET7:25 338.426 // $w=0.094 $lvl=ply $x=1.865 $y=3.485 $x2=1.865 $y2=2.825 $l=0.66
109 x1/x1/MN5:g X1/NET7:28 139.78 // $w=0.15 $lvl=ply $x=3.785 $y=2.06 $x2=3.785 $y2=2.495 $l=0.435
110 x1/x1/MN9:g X1/NET7:23 139.78 // $w=0.15 $lvl=ply $x=1.865 $y=2.06 $x2=1.865 $y2=2.495 $l=0.435
111 X1/NET7:18 X1/NET7:36 152 // $w=0.17 $lvl=licon $x=3.785 $y=2.66 $x2=3.785 $y2=2.66 $l=0.17 $count=1
112 X1/NET7:16 X1/NET7:18 103.489 // $w=0.235 $lvl=li $x=1.885 $y=2.967 $x2=3.785 $y2=2.967 $l=1.9
113 X1/NET7:14 X1/NET7:34 152 // $w=0.17 $lvl=licon $x=1.865 $y=2.66 $x2=1.865 $y2=2.66 $l=0.17 $count=1
114 X1/NET7:14 X1/NET7:16 1.08936 // $w=0.235 $lvl=li $x=1.865 $y=2.967 $x2=1.885 $y2=2.967 $l=0.02

*END

*D_NET NET5 0.0162444
*CONN
*I x1/x1/MN10:g I 
*I x1/x1/MN7:g I 
*I x1/x1/MP9:g I 
*I x1/x1/MP6:g I 
*I x1/x3/MN0:s B 
*I x1/x2/MN1:s B 
*I x5/x7/MN0:d B 
*I x1/x3/MP1:s B 
*I x1/x2/MP0:s B 
*I x5/x7/MP0:d B 

*CAP
0 NET5:4 X1/NET7:16 2.40599e-06 // $x=2.81 $y=2.5 $x2=1.885 $y2=2.87
1 NET5:43 X1/NET7:16 8.88043e-05 // $x=2.905 $y=2.46 $x2=1.885 $y2=2.87
2 NET5:98 X1/NET7:16 3.57405e-05 // $x=2.81 $y=2.5 $x2=1.885 $y2=2.87
3 NET5:98 X1/NET7:23 1.97748e-05 // $x=2.81 $y=2.5 $x2=1.865 $y2=2.495
4 NET5:98 X1/NET7:34 4.81843e-06 // $x=2.81 $y=2.5 $x2=1.865 $y2=2.66
5 x1/x1/MP9:g X1/NET7:16 4.43233e-06 // $x=1.385 $y=3.485 $x2=1.885 $y2=2.87
6 x1/x1/MP9:g x1/x1/MP8:g 5.73233e-05 // $x=1.385 $y=3.485 $x2=1.865 $y2=3.485
7 x1/x1/MP6:g X1/NET7:16 1.92398e-05 // $x=2.825 $y=3.485 $x2=1.885 $y2=2.87
8 x1/x1/MP6:g x1/x1/MP8:g 3.25936e-06 // $x=2.825 $y=3.485 $x2=1.865 $y2=3.485
9 x1/x1/MP6:g x1/x1/MP4:g 2.97084e-06 // $x=2.825 $y=3.485 $x2=3.785 $y2=3.485
10 NET5:109 X1/NET7:23 3.97949e-05 // $x=1.385 $y=2.495 $x2=1.865 $y2=2.495
11 NET5:114 X1/NET7:23 2.06176e-06 // $x=2.825 $y=2.495 $x2=1.865 $y2=2.495
12 NET5:120 X1/NET7:16 5.96354e-06 // $x=1.385 $y=2.66 $x2=1.885 $y2=2.87
13 NET5:120 X1/NET7:34 4.3134e-05 // $x=1.385 $y=2.66 $x2=1.865 $y2=2.66
14 NET5:122 X1/NET7:36 1.09555e-06 // $x=2.825 $y=2.66 $x2=3.785 $y2=2.66
15 NET5:32 X1/NET1:9 4.71131e-05 // $x=12.305 $y=2.11 $x2=0 $y2=0
16 NET5:33 X1/NET1:10 3.60132e-05 // $x=10.065 $y=2.11 $x2=0 $y2=0
17 NET5:4 X1/NET1:12 2.00766e-06 // $x=2.81 $y=2.5 $x2=0 $y2=0
18 NET5:32 X1/NET1:16 2.24656e-07 // $x=12.305 $y=2.11 $x2=1.885 $y2=2.87
19 NET5:33 X1/NET1:16 3.27945e-06 // $x=10.065 $y=2.11 $x2=1.885 $y2=2.87
20 NET5:32 X1/NET1:20 1.49852e-05 // $x=12.305 $y=2.11 $x2=3.785 $y2=2.06
21 NET5:39 X1/NET1:20 7.04579e-06 // $x=12.447 $y=5.695 $x2=3.785 $y2=2.06
22 NET5:36 X1/NET1:24 1.62146e-05 // $x=12.36 $y=5.782 $x2=1.865 $y2=2.06
23 NET5:27 X1/NET1:27 2.9845e-05 // $x=9.98 $y=2.025 $x2=0 $y2=0
24 NET5:33 X1/NET1:30 2.9845e-05 // $x=10.065 $y=2.11 $x2=3.785 $y2=2.825
25 NET5:24 X1/NET1:31 3.58934e-06 // $x=9.895 $y=0.815 $x2=3.785 $y2=3.485
26 NET5:32 X1/NET1:31 3.39829e-06 // $x=12.305 $y=2.11 $x2=3.785 $y2=3.485
27 NET5:33 X1/NET1:31 1.62198e-05 // $x=10.065 $y=2.11 $x2=3.785 $y2=3.485
28 NET5:24 X1/NET1:32 1.62557e-06 // $x=9.895 $y=0.815 $x2=0 $y2=0
29 NET5:32 X1/NET1:33 6.22193e-05 // $x=12.305 $y=2.11 $x2=1.865 $y2=2.66
30 NET5:39 X1/NET1:33 1.69474e-05 // $x=12.447 $y=5.695 $x2=1.865 $y2=2.66
31 NET5:8 X1/NET1:34 2.25458e-05 // $x=11.645 $y=6.4 $x2=1.865 $y2=2.66
32 NET5:39 X1/NET1:34 7.73889e-05 // $x=12.447 $y=5.695 $x2=1.865 $y2=2.66
33 NET5:48 X1/NET1:34 3.69407e-05 // $x=11.69 $y=6.445 $x2=1.865 $y2=2.66
34 NET5:51 X1/NET1:34 5.62188e-05 // $x=11.647 $y=5.782 $x2=1.865 $y2=2.66
35 NET5:74 X1/NET1:34 2.26579e-07 // $x=11.645 $y=6.4 $x2=1.865 $y2=2.66
36 x1/x3/MP1:s X1/NET1:34 9.60888e-06 // $x=11.465 $y=5.015 $x2=1.865 $y2=2.66
37 NET5:23 X1/NET1:37 5.03232e-06 // $x=2.952 $y=2.33 $x2=0 $y2=0
38 NET5:24 X1/NET1:37 0.00055292 // $x=9.895 $y=0.815 $x2=0 $y2=0
39 NET5:23 X1/NET1:45 1.18954e-06 // $x=2.952 $y=2.33 $x2=0 $y2=0
40 NET5:43 X1/NET1:45 4.95264e-06 // $x=2.905 $y=2.46 $x2=0 $y2=0
41 NET5:36 X1/NET1:54 7.08584e-06 // $x=12.36 $y=5.782 $x2=0 $y2=0
42 NET5:8 X1/NET1:55 2.57321e-05 // $x=11.645 $y=6.4 $x2=0 $y2=0
43 NET5:36 X1/NET1:55 1.41035e-05 // $x=12.36 $y=5.782 $x2=0 $y2=0
44 NET5:48 X1/NET1:55 3.98071e-05 // $x=11.69 $y=6.445 $x2=0 $y2=0
45 NET5:72 X1/NET1:55 1.00097e-06 // $x=11.645 $y=7.855 $x2=0 $y2=0
46 NET5:74 X1/NET1:55 6.66998e-06 // $x=11.645 $y=6.4 $x2=0 $y2=0
47 NET5:23 X1/NET1:62 1.05488e-05 // $x=2.952 $y=2.33 $x2=0 $y2=0
48 NET5:43 X1/NET1:63 3.27073e-05 // $x=2.905 $y=2.46 $x2=0 $y2=0
49 NET5:23 X1/NET1:65 7.5218e-06 // $x=2.952 $y=2.33 $x2=0 $y2=0
50 NET5:24 X1/NET1:65 1.6569e-05 // $x=9.895 $y=0.815 $x2=0 $y2=0
51 NET5:30 X1/NET1:72 2.67154e-06 // $x=75.765 $y=0.277 $x2=0 $y2=0
52 NET5:32 X1/NET1:72 6.24516e-07 // $x=12.305 $y=2.11 $x2=0 $y2=0
53 x1/x2/MN1:s X1/NET1:72 1.55138e-06 // $x=12.31 $y=0.575 $x2=0 $y2=0
54 NET5:32 X1/NET1:75 5.7246e-06 // $x=12.305 $y=2.11 $x2=0 $y2=0
55 x1/x2/MN1:s X1/NET1:75 1.18271e-05 // $x=12.31 $y=0.575 $x2=0 $y2=0
56 NET5:4 X1/NET1:85 7.90065e-07 // $x=2.81 $y=2.5 $x2=0 $y2=0
57 NET5:98 X1/NET1:85 1.28407e-06 // $x=2.81 $y=2.5 $x2=0 $y2=0
58 x1/x3/MP1:s x1/x2/MP1:s 1.0705e-06 // $x=11.465 $y=5.015 $x2=0 $y2=0
59 NET5:36 x1/x3/MP0:s 6.29443e-06 // $x=12.36 $y=5.782 $x2=0 $y2=0
60 NET5:39 x1/x3/MP0:s 1.14907e-05 // $x=12.447 $y=5.695 $x2=0 $y2=0
61 NET5:72 x1/x3/MP0:s 1.55138e-06 // $x=11.645 $y=7.855 $x2=0 $y2=0
62 NET5:74 x1/x3/MP0:s 1.276e-05 // $x=11.645 $y=6.4 $x2=0 $y2=0
63 x1/x3/MP1:s x1/x3/MP0:s 2.26908e-06 // $x=11.465 $y=5.015 $x2=0 $y2=0
64 NET5:4 X1/NET11:2 3.76208e-05 // $x=2.81 $y=2.5 $x2=0 $y2=0
65 NET5:43 X1/NET11:2 6.2732e-06 // $x=2.905 $y=2.46 $x2=0 $y2=0
66 NET5:98 X1/NET11:2 1.45795e-06 // $x=2.81 $y=2.5 $x2=0 $y2=0
67 NET5:122 X1/NET11:2 6.56674e-07 // $x=2.825 $y=2.66 $x2=0 $y2=0
68 NET5:4 X1/NET11:10 5.06721e-06 // $x=2.81 $y=2.5 $x2=0 $y2=0
69 NET5:23 X1/NET11:10 3.42079e-05 // $x=2.952 $y=2.33 $x2=0 $y2=0
70 NET5:24 X1/NET11:10 3.63409e-06 // $x=9.895 $y=0.815 $x2=0 $y2=0
71 NET5:43 X1/NET11:10 4.58858e-05 // $x=2.905 $y=2.46 $x2=0 $y2=0
72 NET5:4 X1/NET11:22 2.62425e-06 // $x=2.81 $y=2.5 $x2=3.785 $y2=3.485
73 NET5:98 X1/NET11:22 1.43642e-05 // $x=2.81 $y=2.5 $x2=3.785 $y2=3.485
74 x1/x1/MP6:g x1/x1/MP5:g 5.68148e-05 // $x=2.825 $y=3.485 $x2=3.785 $y2=3.485
75 NET5:4 X1/NET11:33 9.72005e-07 // $x=2.81 $y=2.5 $x2=1.865 $y2=2.66
76 NET5:23 X1/NET11:33 8.38816e-07 // $x=2.952 $y=2.33 $x2=1.865 $y2=2.66
77 NET5:98 X1/NET11:33 1.30356e-06 // $x=2.81 $y=2.5 $x2=1.865 $y2=2.66
78 NET5:114 X1/NET11:33 3.97798e-05 // $x=2.825 $y=2.495 $x2=1.865 $y2=2.66
79 NET5:4 X1/NET11:44 6.83811e-07 // $x=2.81 $y=2.5 $x2=0 $y2=0
80 NET5:43 X1/NET11:44 3.91556e-07 // $x=2.905 $y=2.46 $x2=0 $y2=0
81 NET5:98 X1/NET11:44 1.89087e-06 // $x=2.81 $y=2.5 $x2=0 $y2=0
82 NET5:122 X1/NET11:44 4.38373e-05 // $x=2.825 $y=2.66 $x2=0 $y2=0
83 NET5:4 X1/NET9:2 1.14957e-05 // $x=2.81 $y=2.5 $x2=0 $y2=0
84 NET5:43 X1/NET9:2 1.69677e-05 // $x=2.905 $y=2.46 $x2=0 $y2=0
85 NET5:98 X1/NET9:2 7.59853e-06 // $x=2.81 $y=2.5 $x2=0 $y2=0
86 x1/x1/MP6:g X1/NET9:2 4.19854e-06 // $x=2.825 $y=3.485 $x2=0 $y2=0
87 NET5:122 X1/NET9:2 1.97588e-06 // $x=2.825 $y=2.66 $x2=0 $y2=0
88 NET5:4 X1/NET9:3 4.75696e-06 // $x=2.81 $y=2.5 $x2=0 $y2=0
89 x1/x1/MP6:g X1/NET9:3 1.06976e-06 // $x=2.825 $y=3.485 $x2=0 $y2=0
90 NET5:4 X1/NET9:25 1.28889e-06 // $x=2.81 $y=2.5 $x2=1.865 $y2=2.825
91 NET5:98 X1/NET9:25 3.40535e-05 // $x=2.81 $y=2.5 $x2=1.865 $y2=2.825
92 NET5:122 X1/NET9:25 1.80773e-06 // $x=2.825 $y=2.66 $x2=1.865 $y2=2.825
93 x1/x1/MP9:g x1/x1/MP7:g 3.95498e-06 // $x=1.385 $y=3.485 $x2=1.865 $y2=2.66
94 x1/x1/MP6:g x1/x1/MP7:g 5.66876e-05 // $x=2.825 $y=3.485 $x2=1.865 $y2=2.66
95 NET5:98 X1/NET9:36 1.22532e-05 // $x=2.81 $y=2.5 $x2=3.785 $y2=2.66
96 NET5:109 X1/NET9:36 2.66216e-06 // $x=1.385 $y=2.495 $x2=3.785 $y2=2.66
97 NET5:114 X1/NET9:36 3.81752e-05 // $x=2.825 $y=2.495 $x2=3.785 $y2=2.66
98 NET5:98 X1/NET9:47 5.13097e-06 // $x=2.81 $y=2.5 $x2=0 $y2=0
99 NET5:120 X1/NET9:47 9.00605e-07 // $x=1.385 $y=2.66 $x2=0 $y2=0
100 NET5:122 X1/NET9:47 4.48423e-05 // $x=2.825 $y=2.66 $x2=0 $y2=0
101 NET5:30 NET1:1 5.71572e-06 // $x=75.765 $y=0.277 $x2=0 $y2=0
102 NET5:30 NET1:22 7.00343e-05 // $x=75.765 $y=0.277 $x2=3.785 $y2=3.485
103 NET5:30 NET1:29 0.000387018 // $x=75.765 $y=0.277 $x2=3.785 $y2=2.06
104 NET5:30 NET1:32 4.23378e-05 // $x=75.765 $y=0.277 $x2=0 $y2=0
105 NET5:30 NET1:43 1.30635e-05 // $x=75.765 $y=0.277 $x2=0 $y2=0
106 NET5:30 NET1:56 5.44286e-06 // $x=75.765 $y=0.277 $x2=0 $y2=0
107 NET5:30 x1/x7/MN0:d 1.405e-06 // $x=75.765 $y=0.277 $x2=0 $y2=0
108 NET5:30 x2/x2/MN1:s 1.91836e-06 // $x=75.765 $y=0.277 $x2=0 $y2=0
109 NET5:30 X2/NET1:31 2.48273e-06 // $x=75.765 $y=0.277 $x2=3.785 $y2=3.485
110 NET5:30 X2/NET1:72 2.67154e-06 // $x=75.765 $y=0.277 $x2=0 $y2=0
111 NET5:30 NET2:1 5.71572e-06 // $x=75.765 $y=0.277 $x2=0 $y2=0
112 NET5:30 NET2:22 7.03847e-05 // $x=75.765 $y=0.277 $x2=3.785 $y2=3.485
113 NET5:30 NET2:29 0.000387018 // $x=75.765 $y=0.277 $x2=3.785 $y2=2.06
114 NET5:30 NET2:32 4.23378e-05 // $x=75.765 $y=0.277 $x2=0 $y2=0
115 NET5:30 NET2:41 1.30635e-05 // $x=75.765 $y=0.277 $x2=0 $y2=0
116 NET5:30 NET2:57 5.44286e-06 // $x=75.765 $y=0.277 $x2=0 $y2=0
117 NET5:30 x2/x7/MN0:d 1.405e-06 // $x=75.765 $y=0.277 $x2=0 $y2=0
118 NET5:30 x3/x2/MN1:s 1.91836e-06 // $x=75.765 $y=0.277 $x2=0 $y2=0
119 NET5:30 X3/NET1:31 2.48273e-06 // $x=75.765 $y=0.277 $x2=3.785 $y2=3.485
120 NET5:30 X3/NET1:72 2.67154e-06 // $x=75.765 $y=0.277 $x2=0 $y2=0
121 NET5:30 NET3:1 5.71572e-06 // $x=75.765 $y=0.277 $x2=0 $y2=0
122 NET5:30 NET3:22 7.03847e-05 // $x=75.765 $y=0.277 $x2=3.785 $y2=3.485
123 NET5:30 NET3:29 0.000387018 // $x=75.765 $y=0.277 $x2=3.785 $y2=2.06
124 NET5:30 NET3:32 4.23378e-05 // $x=75.765 $y=0.277 $x2=0 $y2=0
125 NET5:30 NET3:41 1.30635e-05 // $x=75.765 $y=0.277 $x2=0 $y2=0
126 NET5:30 NET3:57 5.44286e-06 // $x=75.765 $y=0.277 $x2=0 $y2=0
127 NET5:30 x3/x7/MN0:d 1.405e-06 // $x=75.765 $y=0.277 $x2=0 $y2=0
128 NET5:30 x4/x2/MN1:s 1.91836e-06 // $x=75.765 $y=0.277 $x2=0 $y2=0
129 NET5:30 X4/NET1:31 2.48273e-06 // $x=75.765 $y=0.277 $x2=3.785 $y2=3.485
130 NET5:30 X4/NET1:72 2.67154e-06 // $x=75.765 $y=0.277 $x2=0 $y2=0
131 NET5:30 NET4:1 5.71572e-06 // $x=75.765 $y=0.277 $x2=0 $y2=0
132 NET5:30 NET4:22 7.03847e-05 // $x=75.765 $y=0.277 $x2=3.785 $y2=3.485
133 NET5:30 NET4:29 0.000386603 // $x=75.765 $y=0.277 $x2=3.785 $y2=2.06
134 NET5:30 NET4:32 4.23378e-05 // $x=75.765 $y=0.277 $x2=0 $y2=0
135 NET5:30 NET4:41 1.30635e-05 // $x=75.765 $y=0.277 $x2=0 $y2=0
136 NET5:30 NET4:57 5.44286e-06 // $x=75.765 $y=0.277 $x2=0 $y2=0
137 NET5:30 x4/x7/MN0:d 1.405e-06 // $x=75.765 $y=0.277 $x2=0 $y2=0
138 NET5:30 x5/x2/MN1:s 1.91836e-06 // $x=75.765 $y=0.277 $x2=0 $y2=0
139 NET5:30 X5/NET1:31 2.48273e-06 // $x=75.765 $y=0.277 $x2=3.785 $y2=3.485
140 NET5:30 X5/NET1:72 2.67154e-06 // $x=75.765 $y=0.277 $x2=0 $y2=0
141 x1/x1/MP6:g X1/X1/NET9:2 1.85417e-06 // $x=2.825 $y=3.485 $x2=0 $y2=0
142 NET5:4 X1/X1/NET9:6 2.97882e-05 // $x=2.81 $y=2.5 $x2=0 $y2=0
143 NET5:23 X1/X1/NET9:6 2.05231e-05 // $x=2.952 $y=2.33 $x2=0 $y2=0
144 NET5:43 X1/X1/NET9:6 1.05277e-05 // $x=2.905 $y=2.46 $x2=0 $y2=0
145 NET5:98 X1/X1/NET9:6 2.79738e-06 // $x=2.81 $y=2.5 $x2=0 $y2=0
146 NET5:114 X1/X1/NET9:6 2.87717e-06 // $x=2.825 $y=2.495 $x2=0 $y2=0
147 NET5:4 X1/X1/NET9:15 4.28354e-06 // $x=2.81 $y=2.5 $x2=1.885 $y2=2.967
148 NET5:23 X1/X1/NET9:15 4.21762e-05 // $x=2.952 $y=2.33 $x2=1.885 $y2=2.967
149 NET5:43 X1/X1/NET9:15 6.193e-05 // $x=2.905 $y=2.46 $x2=1.885 $y2=2.967
150 NET5:98 X1/X1/NET9:15 1.09363e-05 // $x=2.81 $y=2.5 $x2=1.885 $y2=2.967
151 NET5:122 X1/X1/NET9:15 2.56302e-07 // $x=2.825 $y=2.66 $x2=1.885 $y2=2.967
152 NET5:23 X1/X1/NET9:27 2.8434e-06 // $x=2.952 $y=2.33 $x2=0 $y2=0
153 NET5:98 X1/X1/NET9:27 4.94355e-06 // $x=2.81 $y=2.5 $x2=0 $y2=0
154 NET5:114 X1/X1/NET9:27 1.88517e-05 // $x=2.825 $y=2.495 $x2=0 $y2=0
155 x1/x1/MP6:g x1/x1/MP7:s 4.55628e-06 // $x=2.825 $y=3.485 $x2=0 $y2=0
156 NET5:109 X1/X1/NET13:4 1.49823e-06 // $x=1.385 $y=2.495 $x2=0 $y2=0
157 x1/x1/MP9:g X1/X1/NET13:6 2.11225e-07 // $x=1.385 $y=3.485 $x2=0 $y2=0
158 NET5:98 X1/X1/NET13:14 1.09025e-05 // $x=2.81 $y=2.5 $x2=1.865 $y2=2.66
159 x1/x1/MP9:g X1/X1/NET13:14 8.34976e-06 // $x=1.385 $y=3.485 $x2=1.865 $y2=2.66
160 NET5:109 X1/X1/NET13:14 3.11618e-06 // $x=1.385 $y=2.495 $x2=1.865 $y2=2.66
161 NET5:120 X1/X1/NET13:14 3.65227e-06 // $x=1.385 $y=2.66 $x2=1.865 $y2=2.66
162 NET5:4 X1/X1/NET13:16 2.24254e-07 // $x=2.81 $y=2.5 $x2=1.885 $y2=2.87
163 x1/x1/MP6:g X1/X1/NET13:16 2.01929e-06 // $x=2.825 $y=3.485 $x2=1.885 $y2=2.87
164 x1/x1/MP9:g X1/X1/NET13:35 1.82166e-05 // $x=1.385 $y=3.485 $x2=3.785 $y2=2.66
165 NET5:109 x1/x1/MN10:d 1.4969e-05 // $x=1.385 $y=2.495 $x2=0 $y2=0
166 NET5:32 S1 2.24656e-07 // $x=12.305 $y=2.11 $x2=0 $y2=0
167 NET5:39 S1:15 2.17463e-06 // $x=12.447 $y=5.695 $x2=1.885 $y2=2.967
168 NET5:32 S1:18 1.70751e-05 // $x=12.305 $y=2.11 $x2=3.785 $y2=2.66
169 NET5:27 S1:22 5.1417e-06 // $x=9.98 $y=2.025 $x2=3.785 $y2=3.485
170 NET5:32 S1:22 8.19048e-06 // $x=12.305 $y=2.11 $x2=3.785 $y2=3.485
171 NET5:74 S1:28 2.44188e-06 // $x=11.645 $y=6.4 $x2=3.785 $y2=2.495
172 x1/x3/MP1:s S1:28 7.21661e-07 // $x=11.465 $y=5.015 $x2=3.785 $y2=2.495
173 NET5:27 x1/x2/MN2:g 6.76641e-06 // $x=9.98 $y=2.025 $x2=1.865 $y2=2.66
174 NET5:30 x1/x2/MN2:g 1.65733e-06 // $x=75.765 $y=0.277 $x2=1.865 $y2=2.66
175 NET5:30 x1/x2/MN1:g 1.66394e-06 // $x=75.765 $y=0.277 $x2=3.785 $y2=2.66
176 x1/x2/MN1:s x1/x2/MN1:g 3.60504e-05 // $x=12.31 $y=0.575 $x2=3.785 $y2=2.66
177 NET5:74 x1/x3/MN1:g 5.3306e-06 // $x=11.645 $y=6.4 $x2=3.785 $y2=2.66
178 NET5:32 x1/x2/MP2:g 5.94436e-06 // $x=12.305 $y=2.11 $x2=0 $y2=0
179 NET5:12 S1:53 6.43979e-07 // $x=12.45 $y=2.11 $x2=0 $y2=0
180 NET5:32 S1:53 5.29879e-06 // $x=12.305 $y=2.11 $x2=0 $y2=0
181 NET5:39 S1:55 1.02181e-06 // $x=12.447 $y=5.695 $x2=0 $y2=0
182 NET5:39 S1:57 1.02181e-06 // $x=12.447 $y=5.695 $x2=0 $y2=0
183 x1/x3/MP1:s S1:57 3.43407e-06 // $x=11.465 $y=5.015 $x2=0 $y2=0
184 NET5:74 S1:59 1.31424e-05 // $x=11.645 $y=6.4 $x2=0 $y2=0
185 NET5:8 S1:63 3.33981e-06 // $x=11.645 $y=6.4 $x2=0 $y2=0
186 NET5:36 S1:63 3.7789e-06 // $x=12.36 $y=5.782 $x2=0 $y2=0
187 NET5:48 S1:63 1.04663e-06 // $x=11.69 $y=6.445 $x2=0 $y2=0
188 NET5:49 S1:63 3.65045e-07 // $x=11.69 $y=6.28 $x2=0 $y2=0
189 NET5:51 S1:63 3.03459e-06 // $x=11.647 $y=5.782 $x2=0 $y2=0
190 NET5:102 S1:63 5.23049e-06 // $x=11.617 $y=6.245 $x2=0 $y2=0
191 x1/x3/MP1:s S1:63 1.89747e-05 // $x=11.465 $y=5.015 $x2=0 $y2=0
192 NET5:27 S1:75 3.11395e-06 // $x=9.98 $y=2.025 $x2=0 $y2=0
193 NET5:32 S1:75 1.35641e-06 // $x=12.305 $y=2.11 $x2=0 $y2=0
194 NET5:30 x2/x2/MN2:g 1.65733e-06 // $x=75.765 $y=0.277 $x2=1.865 $y2=2.66
195 NET5:30 x2/x2/MN1:g 1.66394e-06 // $x=75.765 $y=0.277 $x2=3.785 $y2=2.66
196 NET5:30 x3/x2/MN2:g 1.65733e-06 // $x=75.765 $y=0.277 $x2=1.865 $y2=2.66
197 NET5:30 x3/x2/MN1:g 1.66394e-06 // $x=75.765 $y=0.277 $x2=3.785 $y2=2.66
198 NET5:30 x4/x2/MN2:g 1.65733e-06 // $x=75.765 $y=0.277 $x2=1.865 $y2=2.66
199 NET5:30 x4/x2/MN1:g 1.66394e-06 // $x=75.765 $y=0.277 $x2=3.785 $y2=2.66
200 NET5:30 x5/x2/MN2:g 1.65733e-06 // $x=75.765 $y=0.277 $x2=0 $y2=0
201 NET5:30 x5/x2/MN1:g 1.66394e-06 // $x=75.765 $y=0.277 $x2=1.865 $y2=2.66
202 NET5:72 GND:27 4.83331e-06 // $x=11.645 $y=7.855 $x2=0 $y2=0
203 NET5:4 GND:29 8.09283e-07 // $x=2.81 $y=2.5 $x2=3.785 $y2=2.06
204 NET5:23 GND:29 0.000100423 // $x=2.952 $y=2.33 $x2=3.785 $y2=2.06
205 NET5:24 GND:29 0.000560618 // $x=9.895 $y=0.815 $x2=3.785 $y2=2.06
206 NET5:25 GND:29 2.38463e-05 // $x=3.03 $y=0.815 $x2=3.785 $y2=2.06
207 NET5:43 GND:29 7.66065e-07 // $x=2.905 $y=2.46 $x2=3.785 $y2=2.06
208 NET5:114 GND:29 3.38606e-06 // $x=2.825 $y=2.495 $x2=3.785 $y2=2.06
209 NET5:98 GND:30 1.93531e-05 // $x=2.81 $y=2.5 $x2=3.785 $y2=2.825
210 NET5:109 GND:30 6.90699e-06 // $x=1.385 $y=2.495 $x2=3.785 $y2=2.825
211 NET5:120 GND:30 5.43305e-07 // $x=1.385 $y=2.66 $x2=3.785 $y2=2.825
212 NET5:30 GND:47 0.000536226 // $x=75.765 $y=0.277 $x2=0 $y2=0
213 NET5:30 GND:48 0.000181193 // $x=75.765 $y=0.277 $x2=0 $y2=0
214 NET5:30 GND:65 0.000536226 // $x=75.765 $y=0.277 $x2=0 $y2=0
215 NET5:30 GND:66 0.000181193 // $x=75.765 $y=0.277 $x2=0 $y2=0
216 NET5:30 GND:83 0.000536226 // $x=75.765 $y=0.277 $x2=0 $y2=0
217 NET5:30 GND:84 0.000181193 // $x=75.765 $y=0.277 $x2=0 $y2=0
218 NET5:30 GND:101 0.000536226 // $x=75.765 $y=0.277 $x2=0 $y2=0
219 NET5:30 GND:102 0.000181193 // $x=75.765 $y=0.277 $x2=0 $y2=0
220 NET5:1 GND:117 1.23735e-05 // $x=75.845 $y=1.445 $x2=0 $y2=0
221 NET5:30 GND:117 0.000471502 // $x=75.765 $y=0.277 $x2=0 $y2=0
222 NET5:60 GND:117 3.61209e-06 // $x=75.905 $y=1.27 $x2=0 $y2=0
223 x5/x7/MN0:d GND:117 1.95841e-06 // $x=75.705 $y=0.575 $x2=0 $y2=0
224 NET5:24 GND:124 9.31931e-05 // $x=9.895 $y=0.815 $x2=0 $y2=0
225 NET5:27 GND:124 3.89746e-05 // $x=9.98 $y=2.025 $x2=0 $y2=0
226 NET5:31 GND:124 3.2819e-05 // $x=10.065 $y=0.277 $x2=0 $y2=0
227 NET5:24 GND:127 1.54765e-05 // $x=9.895 $y=0.815 $x2=0 $y2=0
228 NET5:30 GND:127 0.000496088 // $x=75.765 $y=0.277 $x2=0 $y2=0
229 NET5:31 GND:127 2.72994e-05 // $x=10.065 $y=0.277 $x2=0 $y2=0
230 NET5:32 GND:127 4.15757e-05 // $x=12.305 $y=2.11 $x2=0 $y2=0
231 x1/x2/MN1:s GND:127 2.38697e-06 // $x=12.31 $y=0.575 $x2=0 $y2=0
232 NET5:30 GND:130 7.77668e-05 // $x=75.765 $y=0.277 $x2=0 $y2=0
233 NET5:30 GND:133 0.000537764 // $x=75.765 $y=0.277 $x2=0 $y2=0
234 NET5:30 GND:136 7.77668e-05 // $x=75.765 $y=0.277 $x2=0 $y2=0
235 NET5:30 GND:139 0.000537764 // $x=75.765 $y=0.277 $x2=0 $y2=0
236 NET5:30 GND:142 7.77668e-05 // $x=75.765 $y=0.277 $x2=0 $y2=0
237 NET5:30 GND:145 0.000537764 // $x=75.765 $y=0.277 $x2=0 $y2=0
238 NET5:30 GND:148 7.77668e-05 // $x=75.765 $y=0.277 $x2=0 $y2=0
239 NET5:98 GND:157 2.32132e-06 // $x=2.81 $y=2.5 $x2=0 $y2=0
240 NET5:114 GND:157 5.06767e-06 // $x=2.825 $y=2.495 $x2=0 $y2=0
241 NET5:98 GND:158 1.48217e-05 // $x=2.81 $y=2.5 $x2=0 $y2=0
242 NET5:109 GND:158 6.26758e-06 // $x=1.385 $y=2.495 $x2=0 $y2=0
243 NET5:120 GND:158 1.32787e-06 // $x=1.385 $y=2.66 $x2=0 $y2=0
244 x1/x2/MN1:s GND:193 1.12678e-05 // $x=12.31 $y=0.575 $x2=0 $y2=0
245 NET5:72 GND:197 1.2377e-05 // $x=11.645 $y=7.855 $x2=0 $y2=0
246 x1/x2/MN1:s GND:209 1.33082e-06 // $x=12.31 $y=0.575 $x2=0 $y2=0
247 NET5:72 GND:211 1.28014e-06 // $x=11.645 $y=7.855 $x2=0 $y2=0
248 NET5:1 GND:631 3.78722e-06 // $x=75.845 $y=1.445 $x2=0 $y2=0
249 x5/x7/MN0:d GND:631 1.17643e-05 // $x=75.705 $y=0.575 $x2=0 $y2=0
250 NET5:23 x1/x1/MN9:s 3.13273e-06 // $x=2.952 $y=2.33 $x2=0 $y2=0
251 NET5:29 x1/x2/MN2:s 6.85514e-06 // $x=9.982 $y=0.73 $x2=0 $y2=0
252 NET5:30 x1/x2/MN2:s 3.97331e-06 // $x=75.765 $y=0.277 $x2=0 $y2=0
253 NET5:72 x1/x3/MN2:s 1.84699e-06 // $x=11.645 $y=7.855 $x2=0 $y2=0
254 NET5:30 x1/x6/MN0:s 5.94441e-06 // $x=75.765 $y=0.277 $x2=0 $y2=0
255 x1/x2/MN1:s x1/x6/MN0:s 8.67204e-06 // $x=12.31 $y=0.575 $x2=0 $y2=0
256 NET5:30 x1/x7/MN0:s 8.1801e-06 // $x=75.765 $y=0.277 $x2=0 $y2=0
257 NET5:30 x2/x2/MN2:s 4.1411e-06 // $x=75.765 $y=0.277 $x2=0 $y2=0
258 NET5:30 x2/x6/MN0:s 5.94441e-06 // $x=75.765 $y=0.277 $x2=0 $y2=0
259 NET5:30 x2/x7/MN0:s 8.1801e-06 // $x=75.765 $y=0.277 $x2=0 $y2=0
260 NET5:30 x3/x2/MN2:s 4.1411e-06 // $x=75.765 $y=0.277 $x2=0 $y2=0
261 NET5:30 x3/x6/MN0:s 5.94441e-06 // $x=75.765 $y=0.277 $x2=0 $y2=0
262 NET5:30 x3/x7/MN0:s 8.1801e-06 // $x=75.765 $y=0.277 $x2=0 $y2=0
263 NET5:30 x4/x2/MN2:s 4.1411e-06 // $x=75.765 $y=0.277 $x2=0 $y2=0
264 NET5:30 x4/x6/MN0:s 5.94441e-06 // $x=75.765 $y=0.277 $x2=0 $y2=0
265 NET5:30 x4/x7/MN0:s 8.1801e-06 // $x=75.765 $y=0.277 $x2=0 $y2=0
266 NET5:30 x5/x2/MN2:s 4.1411e-06 // $x=75.765 $y=0.277 $x2=0 $y2=0
267 NET5:30 x5/x6/MN0:s 5.94441e-06 // $x=75.765 $y=0.277 $x2=0 $y2=0
268 NET5:1 x5/x7/MN0:s 7.66811e-07 // $x=75.845 $y=1.445 $x2=0 $y2=0
269 NET5:30 x5/x7/MN0:s 7.9046e-06 // $x=75.765 $y=0.277 $x2=0 $y2=0
270 NET5:61 x5/x7/MN0:s 4.81003e-06 // $x=75.9 $y=1.095 $x2=0 $y2=0
271 x5/x7/MN0:d x5/x7/MN0:s 1.93195e-05 // $x=75.705 $y=0.575 $x2=0 $y2=0
272 NET5:12 X1/NET5:2 4.13257e-06 // $x=12.45 $y=2.11 $x2=0 $y2=0
273 NET5:27 X1/NET5:2 1.54914e-05 // $x=9.98 $y=2.025 $x2=0 $y2=0
274 NET5:32 X1/NET5:2 1.84862e-05 // $x=12.305 $y=2.11 $x2=0 $y2=0
275 x1/x2/MN1:s X1/NET5:2 1.29812e-05 // $x=12.31 $y=0.575 $x2=0 $y2=0
276 NET5:12 X1/NET5:3 5.20231e-05 // $x=12.45 $y=2.11 $x2=0 $y2=0
277 NET5:30 X1/NET5:3 2.3835e-05 // $x=75.765 $y=0.277 $x2=0 $y2=0
278 NET5:32 X1/NET5:3 2.52805e-06 // $x=12.305 $y=2.11 $x2=0 $y2=0
279 NET5:54 X1/NET5:3 6.54764e-06 // $x=12.48 $y=2.11 $x2=0 $y2=0
280 x1/x2/MN1:s X1/NET5:3 2.20208e-05 // $x=12.31 $y=0.575 $x2=0 $y2=0
281 NET5:12 X1/NET5:6 8.73092e-06 // $x=12.45 $y=2.11 $x2=0 $y2=0
282 NET5:39 X1/NET5:6 3.80666e-05 // $x=12.447 $y=5.695 $x2=0 $y2=0
283 NET5:54 X1/NET5:6 8.17051e-06 // $x=12.48 $y=2.11 $x2=0 $y2=0
284 x1/x2/MN1:s X1/NET5:6 8.76089e-06 // $x=12.31 $y=0.575 $x2=0 $y2=0
285 NET5:30 X1/NET5:8 6.48342e-06 // $x=75.765 $y=0.277 $x2=0 $y2=0
286 NET5:46 X1/NET5:8 9.82227e-06 // $x=9.98 $y=0.815 $x2=0 $y2=0
287 x1/x2/MN1:s X1/NET5:8 6.22523e-06 // $x=12.31 $y=0.575 $x2=0 $y2=0
288 NET5:12 X1/NET5:21 9.46762e-06 // $x=12.45 $y=2.11 $x2=1.865 $y2=3.485
289 NET5:32 X1/NET5:21 8.78171e-06 // $x=12.305 $y=2.11 $x2=1.865 $y2=3.485
290 NET5:39 X1/NET5:21 1.17799e-05 // $x=12.447 $y=5.695 $x2=1.865 $y2=3.485
291 x1/x2/MN1:s X1/NET5:21 0.000113379 // $x=12.31 $y=0.575 $x2=1.865 $y2=3.485
292 NET5:12 X1/NET5:28 2.05637e-06 // $x=12.45 $y=2.11 $x2=3.785 $y2=2.495