*SPEF "2.0"
*DESIGN "SKY130_OSU_RING_OSCILLATOR_MPR2AT_8"
*DATE "Fri Oct 27 10:30:03 2023"
*VENDOR "Mentor Graphics Corp."
*PROGRAM "Calibre xRC"
*VERSION "v2023.2_27.15"
*DESIGN_FLOW "extraction"
*DIVIDER /
*DELIMITER :
*BUS_DELIMITER []
*T_UNIT 1 NS
*C_UNIT 1 PF
*R_UNIT 1 OHM
*L_UNIT 1 HENRY



// CIRCUIT TEMPERATURE 30C
// NOMINAL TEMPERATURE 30C

*PORTS 
 X5_Y1 B
 VDD B
 X4_Y1 B
 X3_Y1 B
 X2_Y1 B
 X1_Y1 B
 GND B
 S5 B
 S4 B
 S3 B
 S2 B
 S1 B

*D_NET X1/NET6 0.000560492
*CONN
*I x1/x1/MN8:s B 
*I x1/x1/MP8:s B 

*CAP
0 X1/NET6:1 X1/NET7:4 1.37313e-06 // $x=0.597 $y=2.62 $x2=1.565 $y2=2.705
1 X1/NET6:2 X1/NET7:4 2.34879e-05 // $x=0.597 $y=2.988 $x2=1.565 $y2=2.705
2 X1/NET6:6 X1/NET7:4 3.85584e-05 // $x=0.675 $y=3.515 $x2=1.565 $y2=2.705
3 X1/NET6:2 X1/NET7:16 2.56075e-07 // $x=0.597 $y=2.988 $x2=1.565 $y2=2.705
4 X1/NET6:6 X1/NET11:12 5.81225e-07 // $x=0.675 $y=3.515 $x2=0 $y2=0
5 X1/NET6:6 X1/X1/13:9 5.63982e-06 // $x=0.675 $y=3.515 $x2=0 $y2=0
6 X1/NET6:1 X1/X1/13:15 4.34228e-06 // $x=0.597 $y=2.62 $x2=1.542 $y2=2.705
7 x1/x1/MN8:s X1/X1/13:15 4.15152e-07 // $x=0.67 $y=1.885 $x2=1.542 $y2=2.705
8 X1/NET6:1 X1/X1/13:25 5.98804e-06 // $x=0.597 $y=2.62 $x2=1.515 $y2=3.635
9 X1/NET6:2 X1/X1/13:25 6.81948e-06 // $x=0.597 $y=2.988 $x2=1.515 $y2=3.635
10 X1/NET6:6 X1/X1/13:25 5.42847e-06 // $x=0.675 $y=3.515 $x2=1.515 $y2=3.635
11 X1/NET6:1 X1/X1/13:39 5.96819e-07 // $x=0.597 $y=2.62 $x2=2.995 $y2=2.81
12 x1/x1/MN8:s X1/X1/13:39 3.47911e-07 // $x=0.67 $y=1.885 $x2=2.995 $y2=2.81
13 X1/NET6:6 x1/x1/MP8:g 6.85544e-06 // $x=0.675 $y=3.515 $x2=0 $y2=0
14 X1/NET6:22 x1/x1/MP8:g 2.07442e-05 // $x=0.64 $y=3.67 $x2=0 $y2=0
15 X1/NET6:1 X1/X1/13:60 3.79959e-06 // $x=0.597 $y=2.62 $x2=0 $y2=0
16 X1/NET6:2 X1/X1/13:60 2.35514e-07 // $x=0.597 $y=2.988 $x2=0 $y2=0
17 x1/x1/MN8:s X1/X1/13:60 1.56733e-05 // $x=0.67 $y=1.885 $x2=0 $y2=0
18 X1/NET6:2 X1/X1/13:81 5.27613e-07 // $x=0.597 $y=2.988 $x2=0 $y2=0
19 X1/NET6:2 x1/x1/MP0:s 1.14313e-05 // $x=0.597 $y=2.988 $x2=0 $y2=0
20 X1/NET6:6 x1/x1/MP0:s 4.03293e-06 // $x=0.675 $y=3.515 $x2=0 $y2=0
21 X1/NET6:22 x1/x1/MP0:s 2.30913e-06 // $x=0.64 $y=3.67 $x2=0 $y2=0
22 X1/NET6:1 GND:29 2.54885e-05 // $x=0.597 $y=2.62 $x2=1.515 $y2=2.975
23 X1/NET6:6 GND:29 1.40764e-05 // $x=0.675 $y=3.515 $x2=1.515 $y2=2.975
24 x1/x1/MN8:s GND:29 1.13464e-05 // $x=0.67 $y=1.885 $x2=1.515 $y2=2.975
25 X1/NET6:1 GND:196 1.42782e-06 // $x=0.597 $y=2.62 $x2=0 $y2=0
26 x1/x1/MN8:s GND:196 2.84627e-05 // $x=0.67 $y=1.885 $x2=0 $y2=0
27 x1/x1/MN8:s x1/x1/MN8:d 1.39421e-05 // $x=0.67 $y=1.885 $x2=0 $y2=0
28 X1/NET6:1 VDD:2 1.57066e-06 // $x=0.597 $y=2.62 $x2=0 $y2=0
29 X1/NET6:6 VDD:2 3.23963e-06 // $x=0.675 $y=3.515 $x2=0 $y2=0
30 X1/NET6:22 VDD:2 5.33984e-06 // $x=0.64 $y=3.67 $x2=0 $y2=0
31 X1/NET6:6 VDD:3 6.02668e-05 // $x=0.675 $y=3.515 $x2=1.565 $y2=2.745
32 X1/NET6:22 VDD:3 4.38507e-06 // $x=0.64 $y=3.67 $x2=1.565 $y2=2.745
33 X1/NET6:6 VDD:168 1.76398e-06 // $x=0.675 $y=3.515 $x2=0 $y2=0
34 X1/NET6:22 VDD:168 1.0876e-05 // $x=0.64 $y=3.67 $x2=0 $y2=0
35 X1/NET6:6 x1/x1/MP8:d 6.67143e-06 // $x=0.675 $y=3.515 $x2=0 $y2=0
36 X1/NET6:22 x1/x1/MP8:d 2.99917e-06 // $x=0.64 $y=3.67 $x2=0 $y2=0
37 x1/x1/MN8:s 2.57645e-05 // $x=0.67 $y=1.885
38 X1/NET6:22 3.12495e-05 // $x=0.64 $y=3.67
39 X1/NET6:6 0.000121878 // $x=0.675 $y=3.515
40 X1/NET6:2 1.55179e-05 // $x=0.597 $y=2.988
41 X1/NET6:1 1.47814e-05 // $x=0.597 $y=2.62

*RES
42 X1/NET6:22 x1/x1/MP8:s 4.87469 // $w=0.407 $lvl=li $x=0.64 $y=3.605 $x2=0.795 $y2=3.605 $l=0.155
43 X1/NET6:20 x1/x1/MN8:s 13.8182 // $w=0.264 $lvl=li $x=0.717 $y=2.355 $x2=0.717 $y2=2.07 $l=0.285
44 X1/NET6:8 X1/NET6:22 9.3 // $w=0.17 $lvl=mcon $x=0.64 $y=3.67 $x2=0.64 $y2=3.67 $l=0.17 $count=1
45 X1/NET6:6 X1/NET6:8 0.093599 // $w=0.207 $lvl=m1 $x=0.665 $y=3.515 $x2=0.665 $y2=3.67 $l=0.155
46 X1/NET6:4 X1/NET6:20 9.3 // $w=0.17 $lvl=mcon $x=0.645 $y=2.355 $x2=0.645 $y2=2.355 $l=0.17 $count=1
47 X1/NET6:2 X1/NET6:6 0.329593 // $w=0.207 $lvl=m1 $x=0.597 $y=2.988 $x2=0.665 $y2=3.515 $l=0.559969
48 X1/NET6:1 X1/NET6:4 0.178996 // $w=0.194 $lvl=m1 $x=0.597 $y=2.62 $x2=0.64 $y2=2.355 $l=0.285692
49 X1/NET6:1 X1/NET6:2 0.433962 // $w=0.106 $lvl=m1 $x=0.597 $y=2.62 $x2=0.597 $y2=2.988 $l=0.368

*END

*D_NET X1/NET7 0.00159713
*CONN
*I x1/x1/MN0:g I 
*I x1/x1/MN4:g I 
*I x1/x1/MP0:g I 
*I x1/x1/MP7:g I 

*CAP
0 X1/NET7:4 X1/NET6:1 1.37313e-06 // $x=1.565 $y=2.705 $x2=0.597 $y2=2.62
1 X1/NET7:4 X1/NET6:2 2.34879e-05 // $x=1.565 $y=2.705 $x2=0.597 $y2=2.988
2 X1/NET7:4 X1/NET6:6 3.85584e-05 // $x=1.565 $y=2.705 $x2=0.675 $y2=3.515
3 X1/NET7:16 X1/NET6:2 2.56075e-07 // $x=1.565 $y=2.705 $x2=0.597 $y2=2.988
4 X1/NET7:4 NET5:4 2.82056e-05 // $x=1.565 $y=2.705 $x2=0.645 $y2=2.355
5 x1/x1/MP7:g NET5:4 6.34925e-07 // $x=2.995 $y=3.635 $x2=0.645 $y2=2.355
6 X1/NET7:4 NET5:12 2.76741e-06 // $x=1.565 $y=2.705 $x2=0 $y2=0
7 X1/NET7:4 NET5:31 5.16906e-07 // $x=1.565 $y=2.705 $x2=0 $y2=0
8 X1/NET7:32 NET5:31 2.08743e-06 // $x=2.995 $y=2.645 $x2=0 $y2=0
9 X1/NET7:4 NET5:54 0.000107801 // $x=1.565 $y=2.705 $x2=0 $y2=0
10 X1/NET7:20 NET5:54 2.88243e-06 // $x=2.645 $y=2.785 $x2=0 $y2=0
11 x1/x1/MP7:g NET5:54 9.5494e-07 // $x=2.995 $y=3.635 $x2=0 $y2=0
12 X1/NET7:32 NET5:54 4.00951e-06 // $x=2.995 $y=2.645 $x2=0 $y2=0
13 X1/NET7:40 NET5:54 2.86008e-06 // $x=2.995 $y=2.81 $x2=0 $y2=0
14 X1/NET7:4 NET5:107 1.61171e-05 // $x=1.565 $y=2.705 $x2=0 $y2=0
15 X1/NET7:16 NET5:107 1.3671e-05 // $x=1.565 $y=2.705 $x2=0 $y2=0
16 X1/NET7:20 NET5:107 9.44517e-06 // $x=2.645 $y=2.785 $x2=0 $y2=0
17 x1/x1/MP7:g NET5:107 2.78616e-06 // $x=2.995 $y=3.635 $x2=0 $y2=0
18 X1/NET7:38 NET5:107 1.83322e-06 // $x=1.515 $y=2.81 $x2=0 $y2=0
19 X1/NET7:40 NET5:107 1.54602e-06 // $x=2.995 $y=2.81 $x2=0 $y2=0
20 x1/x1/MP0:g x1/x1/MP1:g 5.7286e-05 // $x=1.515 $y=3.635 $x2=0 $y2=0
21 x1/x1/MP7:g x1/x1/MP1:g 1.89754e-05 // $x=2.995 $y=3.635 $x2=0 $y2=0
22 x1/x1/MP7:g x1/x1/MP5:g 3.46618e-06 // $x=2.995 $y=3.635 $x2=0 $y2=0
23 X1/NET7:4 NET5:122 4.02001e-07 // $x=1.565 $y=2.705 $x2=0 $y2=0
24 X1/NET7:16 NET5:122 3.08498e-07 // $x=1.565 $y=2.705 $x2=0 $y2=0
25 X1/NET7:20 NET5:122 2.47455e-07 // $x=2.645 $y=2.785 $x2=0 $y2=0
26 X1/NET7:27 NET5:122 4.01063e-05 // $x=1.515 $y=2.645 $x2=0 $y2=0
27 X1/NET7:32 NET5:122 1.21876e-05 // $x=2.995 $y=2.645 $x2=0 $y2=0
28 X1/NET7:32 NET5:127 1.81071e-06 // $x=2.995 $y=2.645 $x2=0 $y2=0
29 X1/NET7:4 NET5:133 4.43123e-06 // $x=1.565 $y=2.705 $x2=0 $y2=0
30 X1/NET7:16 NET5:133 6.56665e-06 // $x=1.565 $y=2.705 $x2=0 $y2=0
31 X1/NET7:20 NET5:133 3.23209e-06 // $x=2.645 $y=2.785 $x2=0 $y2=0
32 X1/NET7:38 NET5:133 4.35761e-05 // $x=1.515 $y=2.81 $x2=0 $y2=0
33 X1/NET7:40 NET5:133 6.77327e-06 // $x=2.995 $y=2.81 $x2=0 $y2=0
34 X1/NET7:20 X1/NET11:2 2.59646e-06 // $x=2.645 $y=2.785 $x2=0.597 $y2=2.988
35 x1/x1/MP7:g X1/NET11:2 5.32919e-06 // $x=2.995 $y=3.635 $x2=0.597 $y2=2.988
36 X1/NET7:40 X1/NET11:2 1.38671e-06 // $x=2.995 $y=2.81 $x2=0.597 $y2=2.988
37 X1/NET7:40 X1/NET11:12 4.11063e-07 // $x=2.995 $y=2.81 $x2=0 $y2=0
38 X1/NET7:4 X1/NET11:20 2.78077e-07 // $x=1.565 $y=2.705 $x2=0.645 $y2=2.355
39 X1/NET7:20 X1/NET11:20 1.69711e-05 // $x=2.645 $y=2.785 $x2=0.645 $y2=2.355
40 x1/x1/MP7:g X1/NET11:20 1.21576e-06 // $x=2.995 $y=3.635 $x2=0.645 $y2=2.355
41 X1/NET7:32 X1/NET11:20 7.17367e-07 // $x=2.995 $y=2.645 $x2=0.645 $y2=2.355
42 X1/NET7:40 X1/NET11:20 7.85082e-06 // $x=2.995 $y=2.81 $x2=0.645 $y2=2.355
43 x1/x1/MP7:g x1/x1/MP4:g 5.63697e-05 // $x=2.995 $y=3.635 $x2=0 $y2=0
44 X1/NET7:32 X1/NET11:31 4.13033e-05 // $x=2.995 $y=2.645 $x2=0 $y2=0
45 X1/NET7:20 X1/NET11:42 1.84304e-06 // $x=2.645 $y=2.785 $x2=0 $y2=0
46 X1/NET7:40 X1/NET11:42 4.2696e-05 // $x=2.995 $y=2.81 $x2=0 $y2=0
47 X1/NET7:4 X1/NET9:4 6.25374e-07 // $x=1.565 $y=2.705 $x2=0.645 $y2=2.355
48 X1/NET7:4 X1/X1/13:9 2.03421e-05 // $x=1.565 $y=2.705 $x2=0 $y2=0
49 X1/NET7:16 X1/X1/13:9 1.48494e-06 // $x=1.565 $y=2.705 $x2=0 $y2=0
50 X1/NET7:4 X1/X1/13:15 4.51867e-05 // $x=1.565 $y=2.705 $x2=0 $y2=0
51 X1/NET7:16 X1/X1/13:15 1.44377e-06 // $x=1.565 $y=2.705 $x2=0 $y2=0
52 X1/NET7:20 X1/X1/13:15 1.30556e-06 // $x=2.645 $y=2.785 $x2=0 $y2=0
53 X1/NET7:27 X1/X1/13:15 3.13266e-06 // $x=1.515 $y=2.645 $x2=0 $y2=0
54 X1/NET7:32 X1/X1/13:15 1.48044e-05 // $x=2.995 $y=2.645 $x2=0 $y2=0
55 X1/NET7:4 X1/X1/13:25 4.76078e-05 // $x=1.565 $y=2.705 $x2=0.67 $y2=1.885
56 X1/NET7:16 X1/X1/13:25 1.16399e-06 // $x=1.565 $y=2.705 $x2=0.67 $y2=1.885
57 X1/NET7:27 X1/X1/13:25 2.53278e-06 // $x=1.515 $y=2.645 $x2=0.67 $y2=1.885
58 X1/NET7:38 X1/X1/13:25 2.71319e-07 // $x=1.515 $y=2.81 $x2=0.67 $y2=1.885
59 X1/NET7:4 X1/X1/13:39 3.19304e-06 // $x=1.565 $y=2.705 $x2=0 $y2=0
60 X1/NET7:27 X1/X1/13:39 3.38978e-06 // $x=1.515 $y=2.645 $x2=0 $y2=0
61 X1/NET7:32 X1/X1/13:39 1.47619e-06 // $x=2.995 $y=2.645 $x2=0 $y2=0
62 x1/x1/MP0:g x1/x1/MP8:g 5.66934e-05 // $x=1.515 $y=3.635 $x2=0 $y2=0
63 X1/NET7:4 X1/X1/13:60 5.91673e-07 // $x=1.565 $y=2.705 $x2=0 $y2=0
64 X1/NET7:27 X1/X1/13:60 3.93085e-05 // $x=1.515 $y=2.645 $x2=0 $y2=0
65 X1/NET7:4 X1/X1/13:81 5.24694e-06 // $x=1.565 $y=2.705 $x2=0 $y2=0
66 X1/NET7:16 X1/X1/13:81 5.95581e-06 // $x=1.565 $y=2.705 $x2=0 $y2=0
67 X1/NET7:38 X1/X1/13:81 4.59266e-05 // $x=1.515 $y=2.81 $x2=0 $y2=0
68 X1/NET7:4 x1/x1/MP0:s 2.28467e-05 // $x=1.565 $y=2.705 $x2=0 $y2=0
69 X1/NET7:16 x1/x1/MP0:s 2.41142e-05 // $x=1.565 $y=2.705 $x2=0 $y2=0
70 x1/x1/MP0:g x1/x1/MP0:s 2.19158e-05 // $x=1.515 $y=3.635 $x2=0 $y2=0
71 X1/NET7:38 x1/x1/MP0:s 4.41612e-06 // $x=1.515 $y=2.81 $x2=0 $y2=0
72 X1/NET7:32 GND:28 4.87356e-06 // $x=2.995 $y=2.645 $x2=0 $y2=0
73 X1/NET7:4 GND:29 3.5987e-05 // $x=1.565 $y=2.705 $x2=0 $y2=0
74 X1/NET7:16 GND:29 2.73579e-06 // $x=1.565 $y=2.705 $x2=0 $y2=0
75 X1/NET7:27 GND:29 4.90953e-06 // $x=1.515 $y=2.645 $x2=0 $y2=0
76 X1/NET7:38 GND:29 5.47326e-07 // $x=1.515 $y=2.81 $x2=0 $y2=0
77 X1/NET7:20 GND:195 1.77954e-06 // $x=2.645 $y=2.785 $x2=0 $y2=0
78 X1/NET7:32 GND:195 6.65717e-06 // $x=2.995 $y=2.645 $x2=0 $y2=0
79 X1/NET7:40 GND:195 1.20111e-06 // $x=2.995 $y=2.81 $x2=0 $y2=0
80 X1/NET7:4 GND:196 6.72716e-07 // $x=1.565 $y=2.705 $x2=0 $y2=0
81 X1/NET7:16 GND:196 2.59119e-06 // $x=1.565 $y=2.705 $x2=0 $y2=0
82 X1/NET7:20 GND:196 6.42422e-07 // $x=2.645 $y=2.785 $x2=0 $y2=0
83 X1/NET7:27 GND:196 6.63588e-06 // $x=1.515 $y=2.645 $x2=0 $y2=0
84 X1/NET7:38 GND:196 1.01822e-06 // $x=1.515 $y=2.81 $x2=0 $y2=0
85 X1/NET7:4 x1/x1/MN8:d 4.96997e-06 // $x=1.565 $y=2.705 $x2=0 $y2=0
86 X1/NET7:27 x1/x1/MN8:d 5.99707e-06 // $x=1.515 $y=2.645 $x2=0 $y2=0
87 X1/NET7:20 x1/x1/MN4:s 8.34349e-06 // $x=2.645 $y=2.785 $x2=0 $y2=0
88 X1/NET7:32 x1/x1/MN4:s 1.12862e-05 // $x=2.995 $y=2.645 $x2=0 $y2=0
89 X1/NET7:20 X1/X1/14:10 6.35483e-06 // $x=2.645 $y=2.785 $x2=0 $y2=0
90 x1/x1/MP7:g X1/X1/14:10 2.47398e-05 // $x=2.995 $y=3.635 $x2=0 $y2=0
91 X1/NET7:40 X1/X1/14:10 1.48119e-06 // $x=2.995 $y=2.81 $x2=0 $y2=0
92 X1/NET7:4 VDD:2 1.88635e-05 // $x=1.565 $y=2.705 $x2=0.597 $y2=2.988
93 X1/NET7:20 VDD:2 2.10171e-07 // $x=2.645 $y=2.785 $x2=0.597 $y2=2.988
94 x1/x1/MP0:g VDD:2 5.76396e-06 // $x=1.515 $y=3.635 $x2=0.597 $y2=2.988
95 x1/x1/MP7:g VDD:2 5.19335e-06 // $x=2.995 $y=3.635 $x2=0.597 $y2=2.988
96 x1/x1/MP0:g VDD:176 6.0929e-06 // $x=1.515 $y=3.635 $x2=0 $y2=0
97 x1/x1/MP7:g VDD:184 5.57349e-06 // $x=2.995 $y=3.635 $x2=0 $y2=0
98 x1/x1/MP0:g x1/x1/MP8:d 7.99657e-06 // $x=1.515 $y=3.635 $x2=0 $y2=0
99 x1/x1/MP7:g x1/x1/MP1:s 3.93821e-06 // $x=2.995 $y=3.635 $x2=0 $y2=0
100 x1/x1/MP7:g x1/x1/MP7:d 8.31734e-06 // $x=2.995 $y=3.635 $x2=0 $y2=0
101 X1/NET7:40 3.09786e-05 // $x=2.995 $y=2.81
102 X1/NET7:38 2.5574e-05 // $x=1.515 $y=2.81
103 X1/NET7:32 5.69142e-05 // $x=2.995 $y=2.645
104 X1/NET7:27 4.68352e-05 // $x=1.515 $y=2.645
105 x1/x1/MP7:g 7.93144e-05 // $x=2.995 $y=3.635
106 x1/x1/MP0:g 6.51823e-05 // $x=1.515 $y=3.635
107 X1/NET7:20 9.72721e-06 // $x=2.645 $y=2.785
108 X1/NET7:16 4.52087e-06 // $x=1.565 $y=2.705
109 X1/NET7:4 6.76039e-05 // $x=1.565 $y=2.705

*RES
110 X1/NET7:34 X1/NET7:40 52.7279 // $w=0.214 $lvl=ply $x=2.995 $y=2.975 $x2=2.995 $y2=2.81 $l=0.165
111 X1/NET7:32 X1/NET7:40 52.7279 // $w=0.214 $lvl=ply $x=2.995 $y=2.645 $x2=2.995 $y2=2.81 $l=0.165
112 X1/NET7:29 X1/NET7:38 52.7279 // $w=0.214 $lvl=ply $x=1.515 $y=2.975 $x2=1.515 $y2=2.81 $l=0.165
113 X1/NET7:27 X1/NET7:38 52.7279 // $w=0.214 $lvl=ply $x=1.515 $y=2.645 $x2=1.515 $y2=2.81 $l=0.165
114 x1/x1/MP7:g X1/NET7:34 338.426 // $w=0.094 $lvl=ply $x=2.995 $y=3.635 $x2=2.995 $y2=2.975 $l=0.66
115 x1/x1/MP0:g X1/NET7:29 338.426 // $w=0.094 $lvl=ply $x=1.515 $y=3.635 $x2=1.515 $y2=2.975 $l=0.66
116 x1/x1/MN4:g X1/NET7:32 139.78 // $w=0.15 $lvl=ply $x=2.995 $y=2.21 $x2=2.995 $y2=2.645 $l=0.435
117 x1/x1/MN0:g X1/NET7:27 139.78 // $w=0.15 $lvl=ply $x=1.515 $y=2.21 $x2=1.515 $y2=2.645 $l=0.435
118 X1/NET7:22 X1/NET7:40 152 // $w=0.17 $lvl=licon $x=2.995 $y=2.81 $x2=2.995 $y2=2.81 $l=0.17 $count=1
119 X1/NET7:20 X1/NET7:22 19.5633 // $w=0.229 $lvl=li $x=2.645 $y=2.76 $x2=2.995 $y2=2.76 $l=0.35
120 X1/NET7:18 X1/NET7:38 152 // $w=0.17 $lvl=licon $x=1.515 $y=2.81 $x2=1.515 $y2=2.81 $l=0.17 $count=1
121 X1/NET7:16 X1/NET7:18 6.33962 // $w=0.212 $lvl=li $x=1.542 $y=2.705 $x2=1.542 $y2=2.81 $l=0.105
122 X1/NET7:6 X1/NET7:20 9.3 // $w=0.17 $lvl=mcon $x=2.645 $y=2.785 $x2=2.645 $y2=2.785 $l=0.17 $count=1
123 X1/NET7:4 X1/NET7:16 9.3 // $w=0.17 $lvl=mcon $x=1.565 $y=2.705 $x2=1.565 $y2=2.705 $l=0.17 $count=1
124 X1/NET7:4 X1/NET7:6 0.688776 // $w=0.196 $lvl=m1 $x=1.565 $y=2.745 $x2=2.645 $y2=2.745 $l=1.08

*END

*D_NET NET5 0.0189195
*CONN
*I x1/x1/MN1:g I 
*I x1/x1/MN6:g I 
*I x1/x1/MP1:g I 
*I x1/x1/MP5:g I 
*I x1/x3/MN0:s B 
*I x1/x2/MN1:s B 
*I x5/x7/MN0:d B 
*I x1/x3/MP1:s B 
*I x1/x2/MP0:s B 
*I x5/x7/MP0:d B 

*CAP
0 NET5:4 X1/NET7:4 2.82056e-05 // $x=2.325 $y=3.23 $x2=0.645 $y2=2.355
1 NET5:4 x1/x1/MP7:g 6.34925e-07 // $x=2.325 $y=3.23 $x2=0 $y2=0
2 NET5:12 X1/NET7:4 2.76741e-06 // $x=3.8 $y=2.765 $x2=0.645 $y2=2.355
3 NET5:31 X1/NET7:4 5.16906e-07 // $x=2.475 $y=2.59 $x2=0.645 $y2=2.355
4 NET5:31 X1/NET7:32 2.08743e-06 // $x=2.475 $y=2.59 $x2=0 $y2=0
5 NET5:54 X1/NET7:4 0.000107801 // $x=2.495 $y=2.73 $x2=0.645 $y2=2.355
6 NET5:54 X1/NET7:20 2.88243e-06 // $x=2.495 $y=2.73 $x2=0.645 $y2=2.355
7 NET5:54 x1/x1/MP7:g 9.5494e-07 // $x=2.495 $y=2.73 $x2=0 $y2=0
8 NET5:54 X1/NET7:32 4.00951e-06 // $x=2.495 $y=2.73 $x2=0 $y2=0
9 NET5:54 X1/NET7:40 2.86008e-06 // $x=2.495 $y=2.73 $x2=0 $y2=0
10 NET5:107 X1/NET7:4 1.61171e-05 // $x=1.995 $y=2.81 $x2=0.645 $y2=2.355
11 NET5:107 X1/NET7:16 1.3671e-05 // $x=1.995 $y=2.81 $x2=0 $y2=0
12 NET5:107 X1/NET7:20 9.44517e-06 // $x=1.995 $y=2.81 $x2=0.645 $y2=2.355
13 NET5:107 x1/x1/MP7:g 2.78616e-06 // $x=1.995 $y=2.81 $x2=0 $y2=0
14 NET5:107 X1/NET7:38 1.83322e-06 // $x=1.995 $y=2.81 $x2=0 $y2=0
15 NET5:107 X1/NET7:40 1.54602e-06 // $x=1.995 $y=2.81 $x2=0 $y2=0
16 x1/x1/MP1:g x1/x1/MP0:g 5.7286e-05 // $x=1.995 $y=3.635 $x2=0.67 $y2=1.885
17 x1/x1/MP1:g x1/x1/MP7:g 1.89754e-05 // $x=1.995 $y=3.635 $x2=0 $y2=0
18 x1/x1/MP5:g x1/x1/MP7:g 3.46618e-06 // $x=3.955 $y=3.635 $x2=0 $y2=0
19 NET5:122 X1/NET7:4 4.02001e-07 // $x=1.995 $y=2.645 $x2=0.645 $y2=2.355
20 NET5:122 X1/NET7:16 3.08498e-07 // $x=1.995 $y=2.645 $x2=0 $y2=0
21 NET5:122 X1/NET7:20 2.47455e-07 // $x=1.995 $y=2.645 $x2=0.645 $y2=2.355
22 NET5:122 X1/NET7:27 4.01063e-05 // $x=1.995 $y=2.645 $x2=0.67 $y2=3.135
23 NET5:122 X1/NET7:32 1.21876e-05 // $x=1.995 $y=2.645 $x2=0 $y2=0
24 NET5:127 X1/NET7:32 1.81071e-06 // $x=3.955 $y=2.645 $x2=0 $y2=0
25 NET5:133 X1/NET7:4 4.43123e-06 // $x=1.995 $y=2.81 $x2=0.645 $y2=2.355
26 NET5:133 X1/NET7:16 6.56665e-06 // $x=1.995 $y=2.81 $x2=0 $y2=0
27 NET5:133 X1/NET7:20 3.23209e-06 // $x=1.995 $y=2.81 $x2=0.645 $y2=2.355
28 NET5:133 X1/NET7:38 4.35761e-05 // $x=1.995 $y=2.81 $x2=0 $y2=0
29 NET5:133 X1/NET7:40 6.77327e-06 // $x=1.995 $y=2.81 $x2=0 $y2=0
30 NET5:4 X1/NET11:2 1.66942e-05 // $x=2.325 $y=3.23 $x2=0.597 $y2=2.988
31 NET5:6 X1/NET11:2 5.44583e-07 // $x=2.43 $y=3.245 $x2=0.597 $y2=2.988
32 NET5:54 X1/NET11:2 1.42509e-05 // $x=2.495 $y=2.73 $x2=0.597 $y2=2.988
33 NET5:107 X1/NET11:2 3.32093e-07 // $x=1.995 $y=2.81 $x2=0.597 $y2=2.988
34 NET5:111 X1/NET11:2 6.59422e-07 // $x=3.855 $y=2.755 $x2=0.597 $y2=2.988
35 NET5:4 X1/NET11:12 2.74866e-06 // $x=2.325 $y=3.23 $x2=0 $y2=0
36 NET5:12 X1/NET11:12 1.15184e-06 // $x=3.8 $y=2.765 $x2=0 $y2=0
37 NET5:54 X1/NET11:12 7.75341e-05 // $x=2.495 $y=2.73 $x2=0 $y2=0
38 NET5:111 X1/NET11:12 2.23195e-06 // $x=3.855 $y=2.755 $x2=0 $y2=0
39 x1/x1/MP5:g X1/NET11:12 1.2117e-06 // $x=3.955 $y=3.635 $x2=0 $y2=0
40 NET5:12 X1/NET11:20 4.63799e-06 // $x=3.8 $y=2.765 $x2=0.645 $y2=2.355
41 NET5:54 X1/NET11:20 6.49873e-06 // $x=2.495 $y=2.73 $x2=0.645 $y2=2.355
42 NET5:107 X1/NET11:20 9.68329e-07 // $x=1.995 $y=2.81 $x2=0.645 $y2=2.355
43 NET5:111 X1/NET11:20 2.58955e-05 // $x=3.855 $y=2.755 $x2=0.645 $y2=2.355
44 NET5:127 X1/NET11:20 3.64521e-07 // $x=3.955 $y=2.645 $x2=0.645 $y2=2.355
45 NET5:135 X1/NET11:20 1.93927e-06 // $x=3.955 $y=2.81 $x2=0.645 $y2=2.355
46 NET5:111 X1/NET11:24 4.92814e-07 // $x=3.855 $y=2.755 $x2=0 $y2=0
47 NET5:111 x1/x1/MP4:g 2.42421e-07 // $x=3.855 $y=2.755 $x2=0 $y2=0
48 x1/x1/MP5:g x1/x1/MP4:g 5.68839e-05 // $x=3.955 $y=3.635 $x2=0 $y2=0
49 NET5:127 X1/NET11:31 3.91245e-05 // $x=3.955 $y=2.645 $x2=0 $y2=0
50 NET5:12 X1/NET11:42 3.46918e-06 // $x=3.8 $y=2.765 $x2=0 $y2=0
51 NET5:54 X1/NET11:42 1.12176e-06 // $x=2.495 $y=2.73 $x2=0 $y2=0
52 NET5:111 X1/NET11:42 6.66247e-06 // $x=3.855 $y=2.755 $x2=0 $y2=0
53 NET5:135 X1/NET11:42 4.24258e-05 // $x=3.955 $y=2.81 $x2=0 $y2=0
54 NET5:32 X1/NET9:4 5.22455e-07 // $x=12.65 $y=1.555 $x2=0.645 $y2=2.355
55 NET5:54 X1/NET9:4 3.76369e-05 // $x=2.495 $y=2.73 $x2=0.645 $y2=2.355
56 NET5:111 X1/NET9:16 1.04567e-05 // $x=3.855 $y=2.755 $x2=0 $y2=0
57 NET5:135 X1/NET9:16 1.93927e-06 // $x=3.955 $y=2.81 $x2=0 $y2=0
58 x1/x1/MP5:g x1/x1/MP6:g 5.90703e-05 // $x=3.955 $y=3.635 $x2=0.67 $y2=1.885
59 NET5:127 X1/NET9:27 4.07251e-05 // $x=3.955 $y=2.645 $x2=0.67 $y2=3.135
60 NET5:111 X1/NET9:38 6.5299e-06 // $x=3.855 $y=2.755 $x2=0 $y2=0
61 NET5:135 X1/NET9:38 5.15675e-05 // $x=3.955 $y=2.81 $x2=0 $y2=0
62 NET5:40 X1/NET1:9 4.9963e-05 // $x=14.975 $y=2.11 $x2=0 $y2=0
63 NET5:41 X1/NET1:10 3.88631e-05 // $x=12.86 $y=2.11 $x2=0 $y2=0
64 NET5:57 X1/NET1:10 8.91545e-07 // $x=12.755 $y=1.56 $x2=0 $y2=0
65 NET5:32 X1/NET1:16 6.47954e-07 // $x=12.65 $y=1.555 $x2=0 $y2=0
66 NET5:57 X1/NET1:16 2.27703e-07 // $x=12.755 $y=1.56 $x2=0 $y2=0
67 NET5:40 X1/NET1:19 1.49852e-05 // $x=14.975 $y=2.11 $x2=0.717 $y2=2.355
68 NET5:47 X1/NET1:19 7.04576e-06 // $x=15.117 $y=5.695 $x2=0.717 $y2=2.355
69 NET5:44 X1/NET1:23 1.62146e-05 // $x=15.03 $y=5.782 $x2=0.795 $y2=3.605
70 NET5:32 X1/NET1:30 9.10044e-07 // $x=12.65 $y=1.555 $x2=0 $y2=0
71 NET5:41 X1/NET1:30 5.3659e-06 // $x=12.86 $y=2.11 $x2=0 $y2=0
72 NET5:57 X1/NET1:30 7.07806e-07 // $x=12.755 $y=1.56 $x2=0 $y2=0
73 NET5:40 X1/NET1:32 6.22193e-05 // $x=14.975 $y=2.11 $x2=0 $y2=0
74 NET5:47 X1/NET1:32 1.69474e-05 // $x=15.117 $y=5.695 $x2=0 $y2=0
75 NET5:16 X1/NET1:33 2.25458e-05 // $x=14.315 $y=6.4 $x2=0 $y2=0
76 NET5:47 X1/NET1:33 7.73889e-05 // $x=15.117 $y=5.695 $x2=0 $y2=0
77 NET5:59 X1/NET1:33 3.69407e-05 // $x=14.36 $y=6.445 $x2=0 $y2=0
78 NET5:62 X1/NET1:33 5.62187e-05 // $x=14.317 $y=5.782 $x2=0 $y2=0
79 NET5:85 X1/NET1:33 2.26579e-07 // $x=14.315 $y=6.4 $x2=0 $y2=0
80 x1/x3/MP1:s X1/NET1:33 9.60888e-06 // $x=14.135 $y=5.015 $x2=0 $y2=0
81 NET5:44 X1/NET1:48 7.08584e-06 // $x=15.03 $y=5.782 $x2=0 $y2=0
82 NET5:16 X1/NET1:49 2.57321e-05 // $x=14.315 $y=6.4 $x2=0 $y2=0
83 NET5:44 X1/NET1:49 1.41035e-05 // $x=15.03 $y=5.782 $x2=0 $y2=0
84 NET5:59 X1/NET1:49 3.98071e-05 // $x=14.36 $y=6.445 $x2=0 $y2=0
85 NET5:83 X1/NET1:49 1.14262e-06 // $x=14.315 $y=7.855 $x2=0 $y2=0
86 NET5:85 X1/NET1:49 6.66998e-06 // $x=14.315 $y=6.4 $x2=0 $y2=0
87 NET5:40 X1/NET1:59 8.31094e-07 // $x=14.975 $y=2.11 $x2=0 $y2=0
88 x1/x2/MN1:s X1/NET1:59 1.56801e-06 // $x=14.98 $y=0.575 $x2=0 $y2=0
89 NET5:40 X1/NET1:62 5.75414e-06 // $x=14.975 $y=2.11 $x2=0 $y2=0
90 x1/x2/MN1:s X1/NET1:62 1.1843e-05 // $x=14.98 $y=0.575 $x2=0 $y2=0
91 x1/x3/MP1:s x1/x2/MP1:s 1.0705e-06 // $x=14.135 $y=5.015 $x2=0 $y2=0
92 NET5:44 x1/x3/MP0:s 6.29443e-06 // $x=15.03 $y=5.782 $x2=0 $y2=0
93 NET5:47 x1/x3/MP0:s 1.14907e-05 // $x=15.117 $y=5.695 $x2=0 $y2=0
94 NET5:83 x1/x3/MP0:s 1.56801e-06 // $x=14.315 $y=7.855 $x2=0 $y2=0
95 NET5:85 x1/x3/MP0:s 1.27864e-05 // $x=14.315 $y=6.4 $x2=0 $y2=0
96 x1/x3/MP1:s x1/x3/MP0:s 2.2934e-06 // $x=14.135 $y=5.015 $x2=0 $y2=0
97 NET5:32 X1/NET8:2 3.06273e-07 // $x=12.65 $y=1.555 $x2=0.597 $y2=2.988
98 NET5:32 X1/NET8:12 1.43376e-05 // $x=12.65 $y=1.555 $x2=0 $y2=0
99 NET5:32 X1/X1/2:2 9.46859e-07 // $x=12.65 $y=1.555 $x2=0.597 $y2=2.988
100 NET5:32 X1/X1/2:21 9.23714e-07 // $x=12.65 $y=1.555 $x2=0.64 $y2=3.605
101 NET5:32 X1/X1/2:28 0.000115135 // $x=12.65 $y=1.555 $x2=0 $y2=0
102 NET5:32 X1/X1/2:38 5.09542e-06 // $x=12.65 $y=1.555 $x2=0 $y2=0
103 NET5:32 X1/NET10:4 5.02641e-05 // $x=12.65 $y=1.555 $x2=0.645 $y2=2.355
104 NET5:37 X1/NET10:4 5.60245e-06 // $x=12.775 $y=2.025 $x2=0.645 $y2=2.355
105 NET5:41 X1/NET10:4 2.85615e-06 // $x=12.86 $y=2.11 $x2=0.645 $y2=2.355
106 NET5:38 NET1:1 3.39039e-06 // $x=89.065 $y=0.2 $x2=0.597 $y2=2.62
107 NET5:38 NET1:30 5.82141e-05 // $x=89.065 $y=0.2 $x2=0 $y2=0
108 NET5:38 NET1:34 0.000114771 // $x=89.065 $y=0.2 $x2=0 $y2=0
109 NET5:38 NET1:38 2.28545e-05 // $x=89.065 $y=0.2 $x2=0 $y2=0
110 NET5:38 NET1:49 8.90257e-06 // $x=89.065 $y=0.2 $x2=0 $y2=0
111 NET5:38 NET1:66 2.22465e-06 // $x=89.065 $y=0.2 $x2=0 $y2=0
112 NET5:38 NET2:1 4.01008e-06 // $x=89.065 $y=0.2 $x2=0.597 $y2=2.62
113 NET5:38 NET2:30 5.68019e-05 // $x=89.065 $y=0.2 $x2=0 $y2=0
114 NET5:38 NET2:34 0.000114771 // $x=89.065 $y=0.2 $x2=0 $y2=0
115 NET5:38 NET2:38 2.28545e-05 // $x=89.065 $y=0.2 $x2=0 $y2=0
116 NET5:38 NET2:49 8.90512e-06 // $x=89.065 $y=0.2 $x2=0 $y2=0
117 NET5:38 NET2:66 2.22465e-06 // $x=89.065 $y=0.2 $x2=0 $y2=0
118 NET5:38 NET3:1 4.09636e-06 // $x=89.065 $y=0.2 $x2=0.597 $y2=2.62
119 NET5:38 NET3:30 5.56734e-05 // $x=89.065 $y=0.2 $x2=0 $y2=0
120 NET5:38 NET3:34 0.000115166 // $x=89.065 $y=0.2 $x2=0 $y2=0
121 NET5:38 NET3:38 2.28545e-05 // $x=89.065 $y=0.2 $x2=0 $y2=0
122 NET5:38 NET3:49 8.82151e-06 // $x=89.065 $y=0.2 $x2=0 $y2=0
123 NET5:38 NET3:66 2.22465e-06 // $x=89.065 $y=0.2 $x2=0 $y2=0
124 NET5:38 NET4:1 4.18337e-06 // $x=89.065 $y=0.2 $x2=0.597 $y2=2.62
125 NET5:38 NET4:30 5.64819e-05 // $x=89.065 $y=0.2 $x2=0 $y2=0
126 NET5:38 NET4:34 0.000114688 // $x=89.065 $y=0.2 $x2=0 $y2=0
127 NET5:38 NET4:38 2.28545e-05 // $x=89.065 $y=0.2 $x2=0 $y2=0
128 NET5:38 NET4:49 8.90615e-06 // $x=89.065 $y=0.2 $x2=0 $y2=0
129 NET5:38 NET4:66 2.22465e-06 // $x=89.065 $y=0.2 $x2=0 $y2=0
130 NET5:4 X1/X1/13:9 2.65827e-05 // $x=2.325 $y=3.23 $x2=0 $y2=0
131 NET5:6 X1/X1/13:9 5.49996e-06 // $x=2.43 $y=3.245 $x2=0 $y2=0
132 NET5:54 X1/X1/13:9 1.24275e-06 // $x=2.495 $y=2.73 $x2=0 $y2=0
133 NET5:107 X1/X1/13:9 2.87456e-06 // $x=1.995 $y=2.81 $x2=0 $y2=0
134 x1/x1/MP1:g X1/X1/13:9 7.84861e-07 // $x=1.995 $y=3.635 $x2=0 $y2=0
135 NET5:133 X1/X1/13:9 6.88628e-07 // $x=1.995 $y=2.81 $x2=0 $y2=0
136 NET5:12 X1/X1/13:15 1.18361e-05 // $x=3.8 $y=2.765 $x2=0 $y2=0
137 NET5:31 X1/X1/13:15 2.88743e-05 // $x=2.475 $y=2.59 $x2=0 $y2=0
138 NET5:32 X1/X1/13:15 3.00342e-06 // $x=12.65 $y=1.555 $x2=0 $y2=0
139 NET5:54 X1/X1/13:15 1.94251e-05 // $x=2.495 $y=2.73 $x2=0 $y2=0
140 NET5:111 X1/X1/13:15 9.89889e-07 // $x=3.855 $y=2.755 $x2=0 $y2=0
141 NET5:122 X1/X1/13:15 4.17326e-07 // $x=1.995 $y=2.645 $x2=0 $y2=0
142 NET5:133 X1/X1/13:15 8.17565e-07 // $x=1.995 $y=2.81 $x2=0 $y2=0
143 NET5:4 X1/X1/13:25 1.04759e-06 // $x=2.325 $y=3.23 $x2=0.67 $y2=1.885
144 NET5:31 X1/X1/13:25 1.53366e-05 // $x=2.475 $y=2.59 $x2=0.67 $y2=1.885
145 NET5:54 X1/X1/13:25 2.8817e-05 // $x=2.495 $y=2.73 $x2=0.67 $y2=1.885
146 NET5:107 X1/X1/13:25 1.19065e-06 // $x=1.995 $y=2.81 $x2=0.67 $y2=1.885
147 x1/x1/MP1:g X1/X1/13:25 4.2459e-07 // $x=1.995 $y=3.635 $x2=0.67 $y2=1.885
148 NET5:122 X1/X1/13:25 1.58047e-06 // $x=1.995 $y=2.645 $x2=0.67 $y2=1.885
149 NET5:133 X1/X1/13:25 3.75763e-07 // $x=1.995 $y=2.81 $x2=0.67 $y2=1.885
150 NET5:12 X1/X1/13:29 4.49827e-06 // $x=3.8 $y=2.765 $x2=0 $y2=0
151 NET5:31 X1/X1/13:29 5.72373e-06 // $x=2.475 $y=2.59 $x2=0 $y2=0
152 NET5:32 X1/X1/13:29 0.000167577 // $x=12.65 $y=1.555 $x2=0 $y2=0
153 NET5:54 X1/X1/13:29 2.28627e-05 // $x=2.495 $y=2.73 $x2=0 $y2=0
154 NET5:111 X1/X1/13:29 8.32197e-07 // $x=3.855 $y=2.755 $x2=0 $y2=0
155 NET5:31 X1/X1/13:39 4.65443e-06 // $x=2.475 $y=2.59 $x2=0 $y2=0
156 NET5:107 X1/X1/13:39 7.80179e-06 // $x=1.995 $y=2.81 $x2=0 $y2=0
157 NET5:122 X1/X1/13:39 2.58311e-05 // $x=1.995 $y=2.645 $x2=0 $y2=0
158 x1/x1/MP1:g x1/x1/MP8:g 3.50066e-06 // $x=1.995 $y=3.635 $x2=0 $y2=0
159 NET5:122 X1/X1/13:60 2.75379e-06 // $x=1.995 $y=2.645 $x2=0 $y2=0
160 NET5:133 X1/X1/13:81 1.21445e-06 // $x=1.995 $y=2.81 $x2=0 $y2=0
161 NET5:4 x1/x1/MP0:s 1.79954e-06 // $x=2.325 $y=3.23 $x2=0 $y2=0
162 NET5:6 x1/x1/MP0:s 1.2619e-06 // $x=2.43 $y=3.245 $x2=0 $y2=0
163 NET5:54 x1/x1/MP0:s 1.09304e-06 // $x=2.495 $y=2.73 $x2=0 $y2=0
164 NET5:107 x1/x1/MP0:s 1.86252e-05 // $x=1.995 $y=2.81 $x2=0 $y2=0
165 x1/x1/MP1:g x1/x1/MP0:s 1.6634e-05 // $x=1.995 $y=3.635 $x2=0 $y2=0
166 NET5:12 X1/X1/9:10 2.04314e-05 // $x=3.8 $y=2.765 $x2=0 $y2=0
167 NET5:31 X1/X1/9:10 4.42807e-06 // $x=2.475 $y=2.59 $x2=0 $y2=0
168 NET5:54 X1/X1/9:10 7.16161e-07 // $x=2.495 $y=2.73 $x2=0 $y2=0
169 NET5:111 X1/X1/9:10 9.29822e-06 // $x=3.855 $y=2.755 $x2=0 $y2=0
170 x1/x1/MP5:g X1/X1/9:10 2.00349e-06 // $x=3.955 $y=3.635 $x2=0 $y2=0
171 NET5:127 X1/X1/9:10 2.80357e-06 // $x=3.955 $y=2.645 $x2=0 $y2=0
172 NET5:135 X1/X1/9:10 5.27248e-07 // $x=3.955 $y=2.81 $x2=0 $y2=0
173 NET5:31 X1/X1/9:18 2.15541e-06 // $x=2.475 $y=2.59 $x2=0 $y2=0
174 x1/x1/MP5:g X1/X1/9:26 5.21984e-06 // $x=3.955 $y=3.635 $x2=0 $y2=0
175 NET5:12 x1/x1/MN5:d 3.40078e-06 // $x=3.8 $y=2.765 $x2=0 $y2=0
176 NET5:31 x1/x1/MN5:d 5.79581e-07 // $x=2.475 $y=2.59 $x2=0 $y2=0
177 NET5:54 x1/x1/MN5:d 4.4757e-07 // $x=2.495 $y=2.73 $x2=0 $y2=0
178 NET5:111 x1/x1/MN5:d 1.46783e-05 // $x=3.855 $y=2.755 $x2=0 $y2=0
179 NET5:127 x1/x1/MN5:d 2.09945e-05 // $x=3.955 $y=2.645 $x2=0 $y2=0
180 NET5:135 x1/x1/MN5:d 1.41539e-06 // $x=3.955 $y=2.81 $x2=0 $y2=0
181 NET5:32 X1/X1/R0_2:10 5.8552e-07 // $x=12.65 $y=1.555 $x2=0 $y2=0
182 NET5:32 X1/X1/R0_2:16 1.52879e-05 // $x=12.65 $y=1.555 $x2=0 $y2=0
183 NET5:32 X1/X1/R3_2:8 2.51882e-07 // $x=12.65 $y=1.555 $x2=0.64 $y2=3.67
184 NET5:32 X1/X1/R3_2:12 1.11344e-05 // $x=12.65 $y=1.555 $x2=0 $y2=0
185 NET5:40 S1 2.24656e-07 // $x=14.975 $y=2.11 $x2=0.597 $y2=2.62
186 NET5:40 S1:18 1.74952e-05 // $x=14.975 $y=2.11 $x2=0 $y2=0
187 NET5:37 S1:22 9.33925e-06 // $x=12.775 $y=2.025 $x2=0.64 $y2=3.67
188 NET5:40 S1:22 8.18028e-06 // $x=14.975 $y=2.11 $x2=0.64 $y2=3.67
189 NET5:85 S1:28 2.46252e-06 // $x=14.315 $y=6.4 $x2=0 $y2=0
190 x1/x3/MP1:s S1:28 7.86221e-07 // $x=14.135 $y=5.015 $x2=0 $y2=0
191 NET5:35 x1/x2/MN2:g 7.24041e-06 // $x=12.745 $y=1.47 $x2=0 $y2=0
192 NET5:57 x1/x2/MN2:g 2.79106e-06 // $x=12.755 $y=1.56 $x2=0 $y2=0
193 x1/x2/MN1:s x1/x2/MN1:g 3.60504e-05 // $x=14.98 $y=0.575 $x2=0 $y2=0
194 NET5:85 x1/x3/MN1:g 5.3306e-06 // $x=14.315 $y=6.4 $x2=0 $y2=0
195 NET5:40 x1/x2/MP2:g 5.90522e-06 // $x=14.975 $y=2.11 $x2=0 $y2=0
196 NET5:20 S1:53 6.43979e-07 // $x=15.12 $y=2.11 $x2=0 $y2=0
197 NET5:40 S1:53 5.37389e-06 // $x=14.975 $y=2.11 $x2=0 $y2=0
198 NET5:47 S1:55 1.02181e-06 // $x=15.117 $y=5.695 $x2=0 $y2=0
199 NET5:47 S1:57 1.02181e-06 // $x=15.117 $y=5.695 $x2=0 $y2=0
200 x1/x3/MP1:s S1:57 3.43407e-06 // $x=14.135 $y=5.015 $x2=0 $y2=0
201 NET5:85 S1:59 1.31424e-05 // $x=14.315 $y=6.4 $x2=0 $y2=0
202 NET5:16 S1:63 3.33981e-06 // $x=14.315 $y=6.4 $x2=0 $y2=0
203 NET5:44 S1:63 3.7789e-06 // $x=15.03 $y=5.782 $x2=0 $y2=0
204 NET5:59 S1:63 1.04663e-06 // $x=14.36 $y=6.445 $x2=0 $y2=0
205 NET5:60 S1:63 3.65045e-07 // $x=14.36 $y=6.28 $x2=0 $y2=0
206 NET5:62 S1:63 3.03459e-06 // $x=14.317 $y=5.782 $x2=0 $y2=0
207 NET5:115 S1:63 5.23049e-06 // $x=14.287 $y=6.245 $x2=0 $y2=0
208 x1/x3/MP1:s S1:63 1.89747e-05 // $x=14.135 $y=5.015 $x2=0 $y2=0
209 NET5:37 S1:75 5.17086e-06 // $x=12.775 $y=2.025 $x2=0 $y2=0
210 NET5:40 S1:75 1.36794e-06 // $x=14.975 $y=2.11 $x2=0 $y2=0
211 NET5:83 GND:26 4.83331e-06 // $x=14.315 $y=7.855 $x2=0 $y2=0
212 NET5:12 GND:28 3.82589e-06 // $x=3.8 $y=2.765 $x2=0 $y2=0
213 NET5:31 GND:28 3.45009e-05 // $x=2.475 $y=2.59 $x2=0 $y2=0
214 NET5:32 GND:28 0.000886381 // $x=12.65 $y=1.555 $x2=0 $y2=0
215 NET5:33 GND:28 2.51054e-05 // $x=2.56 $y=1.555 $x2=0 $y2=0
216 NET5:54 GND:28 1.89399e-06 // $x=2.495 $y=2.73 $x2=0 $y2=0
217 NET5:111 GND:28 2.83931e-07 // $x=3.855 $y=2.755 $x2=0 $y2=0
218 NET5:127 GND:28 3.92879e-06 // $x=3.955 $y=2.645 $x2=0 $y2=0
219 NET5:122 GND:29 4.22217e-06 // $x=1.995 $y=2.645 $x2=0 $y2=0
220 NET5:32 GND:46 5.91216e-06 // $x=12.65 $y=1.555 $x2=0 $y2=0
221 NET5:35 GND:46 8.86227e-06 // $x=12.745 $y=1.47 $x2=0 $y2=0
222 NET5:38 GND:46 0.000625691 // $x=89.065 $y=0.2 $x2=0 $y2=0
223 NET5:39 GND:46 3.06123e-05 // $x=12.84 $y=0.2 $x2=0 $y2=0
224 NET5:40 GND:46 6.36195e-05 // $x=14.975 $y=2.11 $x2=0 $y2=0
225 NET5:57 GND:46 1.01802e-06 // $x=12.755 $y=1.56 $x2=0 $y2=0
226 x1/x2/MN1:s GND:46 2.18283e-06 // $x=14.98 $y=0.575 $x2=0 $y2=0
227 NET5:38 GND:52 0.00121755 // $x=89.065 $y=0.2 $x2=0 $y2=0
228 NET5:38 GND:53 0.000243018 // $x=89.065 $y=0.2 $x2=0 $y2=0
229 NET5:38 GND:70 0.000686058 // $x=89.065 $y=0.2 $x2=0 $y2=0
230 NET5:38 GND:76 0.00121755 // $x=89.065 $y=0.2 $x2=0 $y2=0
231 NET5:38 GND:77 0.000243018 // $x=89.065 $y=0.2 $x2=0 $y2=0
232 NET5:38 GND:94 0.000686692 // $x=89.065 $y=0.2 $x2=0 $y2=0
233 NET5:38 GND:100 0.00121778 // $x=89.065 $y=0.2 $x2=0 $y2=0
234 NET5:38 GND:101 0.000243224 // $x=89.065 $y=0.2 $x2=0 $y2=0
235 NET5:38 GND:118 0.000686741 // $x=89.065 $y=0.2 $x2=0 $y2=0
236 NET5:38 GND:124 0.0012176 // $x=89.065 $y=0.2 $x2=0 $y2=0
237 NET5:38 GND:125 0.000243018 // $x=89.065 $y=0.2 $x2=0 $y2=0
238 NET5:7 GND:146 1.24695e-05 // $x=89.15 $y=1.45 $x2=0 $y2=0
239 NET5:38 GND:146 0.000607446 // $x=89.065 $y=0.2 $x2=0 $y2=0