*SPEF "2.0"
*DESIGN "SKY130_OSU_RING_OSCILLATOR_MPR2AA_8"
*DATE "Fri Oct 27 10:29:45 2023"
*VENDOR "Mentor Graphics Corp."
*PROGRAM "Calibre xRC"
*VERSION "v2023.2_27.15"
*DESIGN_FLOW "extraction"
*DIVIDER /
*DELIMITER :
*BUS_DELIMITER []
*T_UNIT 1 NS
*C_UNIT 1 PF
*R_UNIT 1 OHM
*L_UNIT 1 HENRY



// CIRCUIT TEMPERATURE 30C
// NOMINAL TEMPERATURE 30C

*PORTS 
 X5_Y1 B
 VDD B
 X4_Y1 B
 X3_Y1 B
 X2_Y1 B
 X1_Y1 B
 GND B
 S5 B
 S4 B
 S3 B
 S2 B
 S1 B

*D_NET X1/NET1 0.00473434
*CONN
*I x1/x1/MN13:d B 
*I x1/x1/MN14:d B 
*I x1/x2/MN0:s B 
*I x1/x3/MN1:s B 
*I x1/x1/MP14:d B 
*I x1/x2/MP1:s B 
*I x1/x3/MP0:s B 

*CAP
0 X1/NET1:1 X1/NET8:4 1.29072e-05 // $x=0.54 $y=3.01 $x2=2.04 $y2=2.215
1 X1/NET1:26 X1/NET8:4 1.8168e-05 // $x=0.637 $y=2.955 $x2=2.04 $y2=2.215
2 X1/NET1:34 X1/NET8:4 3.44369e-06 // $x=0.58 $y=3.1 $x2=2.04 $y2=2.215
3 X1/NET1:39 X1/NET8:4 4.26234e-05 // $x=10.46 $y=1.515 $x2=2.04 $y2=2.215
4 x1/x1/MN13:d X1/NET8:4 3.7469e-06 // $x=0.985 $y=1.735 $x2=2.04 $y2=2.215
5 X1/NET1:1 x1/x1/MN12:d 2.63403e-06 // $x=0.54 $y=3.01 $x2=1.945 $y2=1.735
6 x1/x1/MN13:d x1/x1/MN12:d 2.49429e-06 // $x=0.985 $y=1.735 $x2=1.945 $y2=1.735
7 X1/NET1:26 X1/NET10:4 4.21581e-07 // $x=0.637 $y=2.955 $x2=2.04 $y2=2.215
8 X1/NET1:34 X1/NET10:4 1.81638e-05 // $x=0.58 $y=3.1 $x2=2.04 $y2=2.215
9 X1/NET1:7 X1/X1/NET6:8 1.38445e-06 // $x=10.645 $y=2.395 $x2=0 $y2=0
10 X1/NET1:34 X1/X1/NET6:24 5.13976e-06 // $x=0.58 $y=3.1 $x2=0 $y2=0
11 X1/NET1:7 X1/X1/NET6:44 2.96729e-06 // $x=10.645 $y=2.395 $x2=0 $y2=0
12 X1/NET1:39 X1/NET11:16 1.93431e-05 // $x=10.46 $y=1.515 $x2=0 $y2=0
13 X1/NET1:1 X1/NET6:2 5.40135e-06 // $x=0.54 $y=3.01 $x2=0 $y2=0
14 X1/NET1:4 X1/NET6:2 2.23766e-07 // $x=0.475 $y=3.1 $x2=0 $y2=0
15 X1/NET1:34 X1/NET6:2 3.12336e-06 // $x=0.58 $y=3.1 $x2=0 $y2=0
16 X1/NET1:1 X1/NET6:14 5.34805e-07 // $x=0.54 $y=3.01 $x2=0 $y2=0
17 X1/NET1:34 X1/NET6:14 1.12314e-05 // $x=0.58 $y=3.1 $x2=0 $y2=0
18 X1/NET1:39 X1/NET6:20 2.63081e-06 // $x=10.46 $y=1.515 $x2=2.245 $y2=3.335
19 X1/NET1:1 X1/NET6:41 1.02549e-06 // $x=0.54 $y=3.01 $x2=0 $y2=0
20 x1/x1/MN13:d X1/NET6:41 1.10806e-05 // $x=0.985 $y=1.735 $x2=0 $y2=0
21 X1/NET1:7 X1/NET7:10 6.76056e-06 // $x=10.645 $y=2.395 $x2=0 $y2=0
22 X1/NET1:9 X1/NET7:10 5.09925e-07 // $x=10.73 $y=2.48 $x2=0 $y2=0
23 X1/NET1:39 X1/NET7:14 0.000102483 // $x=10.46 $y=1.515 $x2=0 $y2=0
24 X1/NET1:7 X1/NET7:19 5.77553e-06 // $x=10.645 $y=2.395 $x2=2.245 $y2=3.32
25 X1/NET1:39 X1/NET7:19 5.80164e-05 // $x=10.46 $y=1.515 $x2=2.245 $y2=3.32
26 X1/NET1:30 NET5:13 2.25458e-05 // $x=11.885 $y=6.745 $x2=0 $y2=0
27 X1/NET1:46 NET5:13 2.57321e-05 // $x=12.92 $y=6.817 $x2=0 $y2=0
28 X1/NET1:30 NET5:29 3.07439e-06 // $x=11.885 $y=6.745 $x2=0 $y2=0
29 X1/NET1:7 NET5:32 1.07356e-05 // $x=10.645 $y=2.395 $x2=0 $y2=0
30 X1/NET1:29 NET5:32 3.39803e-06 // $x=11.885 $y=2.565 $x2=0 $y2=0
31 X1/NET1:7 NET5:33 3.38332e-05 // $x=10.645 $y=2.395 $x2=0 $y2=0
32 X1/NET1:8 NET5:33 6.58317e-05 // $x=12.09 $y=2.48 $x2=0 $y2=0
33 X1/NET1:14 NET5:33 4.01454e-06 // $x=10.635 $y=1.515 $x2=0 $y2=0
34 X1/NET1:38 NET5:33 2.48015e-05 // $x=10.635 $y=1.515 $x2=0 $y2=0
35 X1/NET1:39 NET5:34 3.23953e-05 // $x=10.46 $y=1.515 $x2=0 $y2=0
36 X1/NET1:7 NET5:36 1.83822e-05 // $x=10.645 $y=2.395 $x2=0 $y2=0
37 X1/NET1:14 NET5:36 7.73665e-06 // $x=10.635 $y=1.515 $x2=0 $y2=0
38 X1/NET1:38 NET5:36 4.0672e-05 // $x=10.635 $y=1.515 $x2=0 $y2=0
39 X1/NET1:56 NET5:37 2.89011e-06 // $x=12.235 $y=1.025 $x2=0 $y2=0
40 X1/NET1:8 NET5:39 1.10999e-05 // $x=12.09 $y=2.48 $x2=0 $y2=0
41 X1/NET1:18 NET5:39 1.49852e-05 // $x=12.235 $y=2.48 $x2=0 $y2=0
42 X1/NET1:29 NET5:39 6.22193e-05 // $x=11.885 $y=2.565 $x2=0 $y2=0
43 X1/NET1:56 NET5:39 8.11608e-07 // $x=12.235 $y=1.025 $x2=0 $y2=0
44 X1/NET1:59 NET5:39 5.67481e-06 // $x=12.235 $y=2.48 $x2=0 $y2=0
45 X1/NET1:22 NET5:43 1.62146e-05 // $x=13.04 $y=6.77 $x2=0 $y2=0
46 X1/NET1:45 NET5:43 7.08584e-06 // $x=13.085 $y=6.815 $x2=0 $y2=0
47 X1/NET1:46 NET5:43 1.41035e-05 // $x=12.92 $y=6.817 $x2=0 $y2=0
48 x1/x3/MP0:s NET5:43 6.29443e-06 // $x=12.9 $y=5.015 $x2=0 $y2=0
49 X1/NET1:18 NET5:46 7.0457e-06 // $x=12.235 $y=2.48 $x2=0 $y2=0
50 X1/NET1:29 NET5:46 1.69474e-05 // $x=11.885 $y=2.565 $x2=0 $y2=0
51 X1/NET1:30 NET5:46 7.73889e-05 // $x=11.885 $y=6.745 $x2=0 $y2=0
52 x1/x3/MP0:s NET5:46 1.14907e-05 // $x=12.9 $y=5.015 $x2=0 $y2=0
53 X1/NET1:39 NET5:51 6.77505e-06 // $x=10.46 $y=1.515 $x2=0 $y2=0
54 X1/NET1:30 NET5:56 3.69407e-05 // $x=11.885 $y=6.745 $x2=0 $y2=0
55 X1/NET1:46 NET5:56 3.98071e-05 // $x=12.92 $y=6.817 $x2=0 $y2=0
56 X1/NET1:30 NET5:59 5.62187e-05 // $x=11.885 $y=6.745 $x2=0 $y2=0
57 X1/NET1:46 NET5:78 1.14262e-06 // $x=12.92 $y=6.817 $x2=0 $y2=0
58 x1/x3/MP0:s NET5:78 1.56801e-06 // $x=12.9 $y=5.015 $x2=0 $y2=0
59 X1/NET1:30 NET5:80 2.26579e-07 // $x=11.885 $y=6.745 $x2=0 $y2=0
60 X1/NET1:46 NET5:80 6.66998e-06 // $x=12.92 $y=6.817 $x2=0 $y2=0
61 x1/x3/MP0:s NET5:80 1.27864e-05 // $x=12.9 $y=5.015 $x2=0 $y2=0
62 X1/NET1:56 x1/x2/MN1:s 1.56801e-06 // $x=12.235 $y=1.025 $x2=0 $y2=0
63 X1/NET1:59 x1/x2/MN1:s 1.1843e-05 // $x=12.235 $y=2.48 $x2=0 $y2=0
64 X1/NET1:30 x1/x3/MP1:s 9.60888e-06 // $x=11.885 $y=6.745 $x2=0 $y2=0
65 x1/x2/MP1:s x1/x3/MP1:s 1.0705e-06 // $x=12.055 $y=2.605 $x2=0 $y2=0
66 x1/x3/MP0:s x1/x3/MP1:s 2.2934e-06 // $x=12.9 $y=5.015 $x2=0 $y2=0
67 X1/NET1:1 X1/X1/NET9:2 4.57187e-07 // $x=0.54 $y=3.01 $x2=0 $y2=0
68 X1/NET1:69 X1/X1/NET9:2 4.47747e-06 // $x=0.475 $y=3.1 $x2=0 $y2=0
69 X1/NET1:1 X1/X1/NET9:26 6.21338e-06 // $x=0.54 $y=3.01 $x2=0 $y2=0
70 X1/NET1:4 X1/X1/NET9:26 2.70332e-06 // $x=0.475 $y=3.1 $x2=0 $y2=0
71 X1/NET1:26 X1/X1/NET9:26 2.26106e-06 // $x=0.637 $y=2.955 $x2=0 $y2=0
72 X1/NET1:34 X1/X1/NET9:26 5.4501e-06 // $x=0.58 $y=3.1 $x2=0 $y2=0
73 X1/NET1:69 X1/X1/NET9:26 1.1107e-05 // $x=0.475 $y=3.1 $x2=0 $y2=0
74 x1/x1/MN13:d X1/X1/NET9:26 1.0776e-05 // $x=0.985 $y=1.735 $x2=0 $y2=0
75 X1/NET1:1 x1/x1/MP14:g 3.97394e-06 // $x=0.54 $y=3.01 $x2=0 $y2=0
76 X1/NET1:26 x1/x1/MP14:g 7.66817e-07 // $x=0.637 $y=2.955 $x2=0 $y2=0
77 X1/NET1:34 x1/x1/MP14:g 4.0001e-06 // $x=0.58 $y=3.1 $x2=0 $y2=0
78 X1/NET1:69 x1/x1/MP14:g 1.84398e-05 // $x=0.475 $y=3.1 $x2=0 $y2=0
79 X1/NET1:1 X1/X1/NET9:45 4.22438e-06 // $x=0.54 $y=3.01 $x2=0 $y2=0
80 X1/NET1:26 X1/X1/NET9:45 1.21133e-06 // $x=0.637 $y=2.955 $x2=0 $y2=0
81 x1/x1/MN13:d X1/X1/NET9:45 1.40338e-05 // $x=0.985 $y=1.735 $x2=0 $y2=0
82 X1/NET1:1 X1/X1/NET9:56 5.7608e-06 // $x=0.54 $y=3.01 $x2=0 $y2=0
83 X1/NET1:26 X1/X1/NET9:56 4.38838e-07 // $x=0.637 $y=2.955 $x2=0 $y2=0
84 x1/x1/MN13:d X1/X1/NET9:56 3.55496e-06 // $x=0.985 $y=1.735 $x2=0 $y2=0
85 X1/NET1:1 X1/X1/NET8:2 7.57649e-06 // $x=0.54 $y=3.01 $x2=0 $y2=0
86 X1/NET1:39 X1/X1/NET8:10 3.24196e-06 // $x=10.46 $y=1.515 $x2=0 $y2=0
87 X1/NET1:1 X1/X1/NET8:14 2.88837e-06 // $x=0.54 $y=3.01 $x2=0 $y2=0
88 X1/NET1:26 X1/X1/NET8:14 7.32809e-06 // $x=0.637 $y=2.955 $x2=0 $y2=0
89 X1/NET1:34 X1/X1/NET8:14 7.72494e-07 // $x=0.58 $y=3.1 $x2=0 $y2=0
90 X1/NET1:39 X1/X1/NET8:14 9.01952e-05 // $x=10.46 $y=1.515 $x2=0 $y2=0
91 X1/NET1:39 X1/X1/NET8:15 6.84622e-05 // $x=10.46 $y=1.515 $x2=2.077 $y2=1.92
92 X1/NET1:39 X1/X1/NET8:16 9.38649e-06 // $x=10.46 $y=1.515 $x2=0 $y2=0
93 X1/NET1:8 S1:4 5.01822e-05 // $x=12.09 $y=2.48 $x2=2.04 $y2=2.215
94 X1/NET1:30 S1:4 1.30874e-05 // $x=11.885 $y=6.745 $x2=2.04 $y2=2.215
95 X1/NET1:30 S1:8 1.30934e-05 // $x=11.885 $y=6.745 $x2=0 $y2=0
96 X1/NET1:8 S1:14 4.88754e-06 // $x=12.09 $y=2.48 $x2=0 $y2=0
97 X1/NET1:30 S1:14 2.12733e-05 // $x=11.885 $y=6.745 $x2=0 $y2=0
98 X1/NET1:30 S1:18 2.25958e-05 // $x=11.885 $y=6.745 $x2=2.04 $y2=2.215
99 X1/NET1:30 S1:19 0.000134837 // $x=11.885 $y=6.745 $x2=2.245 $y2=3.32
100 X1/NET1:7 S1:22 2.08027e-05 // $x=10.645 $y=2.395 $x2=0 $y2=0
101 X1/NET1:8 S1:22 1.32365e-05 // $x=12.09 $y=2.48 $x2=0 $y2=0
102 X1/NET1:14 S1:22 1.12467e-06 // $x=10.635 $y=1.515 $x2=0 $y2=0
103 X1/NET1:59 S1:22 2.18118e-06 // $x=12.235 $y=2.48 $x2=0 $y2=0
104 X1/NET1:77 S1:22 7.63447e-07 // $x=12.207 $y=2.805 $x2=0 $y2=0
105 X1/NET1:30 S1:28 3.2512e-06 // $x=11.885 $y=6.745 $x2=0 $y2=0
106 X1/NET1:32 S1:28 1.27622e-06 // $x=11.965 $y=6.83 $x2=0 $y2=0
107 X1/NET1:14 x1/x2/MN2:g 4.59943e-06 // $x=10.635 $y=1.515 $x2=0 $y2=0
108 X1/NET1:59 x1/x2/MN1:g 5.497e-06 // $x=12.235 $y=2.48 $x2=0 $y2=0
109 X1/NET1:8 x1/x2/MP2:g 8.48985e-06 // $x=12.09 $y=2.48 $x2=0 $y2=0
110 X1/NET1:8 S1:53 1.04866e-06 // $x=12.09 $y=2.48 $x2=0 $y2=0
111 X1/NET1:59 S1:53 1.31424e-05 // $x=12.235 $y=2.48 $x2=0 $y2=0
112 X1/NET1:30 S1:55 4.64756e-06 // $x=11.885 $y=6.745 $x2=0 $y2=0
113 x1/x2/MP1:s S1:55 3.25084e-06 // $x=12.055 $y=2.605 $x2=0 $y2=0
114 X1/NET1:30 S1:57 4.64756e-06 // $x=11.885 $y=6.745 $x2=0 $y2=0
115 X1/NET1:22 S1:59 6.87017e-07 // $x=13.04 $y=6.77 $x2=0 $y2=0
116 X1/NET1:32 S1:59 7.51686e-06 // $x=11.965 $y=6.83 $x2=0 $y2=0
117 x1/x3/MP0:s S1:59 3.61324e-05 // $x=12.9 $y=5.015 $x2=0 $y2=0
118 X1/NET1:18 S1:61 4.17502e-06 // $x=12.235 $y=2.48 $x2=0 $y2=0
119 X1/NET1:30 S1:61 7.81733e-07 // $x=11.885 $y=6.745 $x2=0 $y2=0
120 X1/NET1:59 S1:61 5.23999e-06 // $x=12.235 $y=2.48 $x2=0 $y2=0
121 x1/x2/MP1:s S1:61 1.62407e-05 // $x=12.055 $y=2.605 $x2=0 $y2=0
122 X1/NET1:30 S1:63 7.81733e-07 // $x=11.885 $y=6.745 $x2=0 $y2=0
123 X1/NET1:7 S1:75 5.56788e-06 // $x=10.645 $y=2.395 $x2=0 $y2=0
124 X1/NET1:8 S1:75 2.08818e-06 // $x=12.09 $y=2.48 $x2=0 $y2=0
125 X1/NET1:14 S1:75 5.15967e-07 // $x=10.635 $y=1.515 $x2=0 $y2=0
126 X1/NET1:32 GND:26 3.62987e-05 // $x=11.965 $y=6.83 $x2=0 $y2=0
127 x1/x3/MP0:s GND:26 2.15789e-06 // $x=12.9 $y=5.015 $x2=0 $y2=0
128 X1/NET1:39 GND:28 0.000654661 // $x=10.46 $y=1.515 $x2=0 $y2=0
129 X1/NET1:1 GND:29 4.29828e-05 // $x=0.54 $y=3.01 $x2=0 $y2=0
130 X1/NET1:26 GND:29 2.12777e-05 // $x=0.637 $y=2.955 $x2=0 $y2=0
131 X1/NET1:28 GND:29 2.59653e-05 // $x=0.725 $y=1.507 $x2=0 $y2=0
132 X1/NET1:34 GND:29 2.23589e-06 // $x=0.58 $y=3.1 $x2=0 $y2=0
133 X1/NET1:39 GND:29 0.000148727 // $x=10.46 $y=1.515 $x2=0 $y2=0
134 X1/NET1:69 GND:29 1.26809e-06 // $x=0.475 $y=3.1 $x2=0 $y2=0
135 x1/x1/MN13:d GND:29 1.242e-05 // $x=0.985 $y=1.735 $x2=0 $y2=0
136 X1/NET1:14 GND:42 4.47212e-06 // $x=10.635 $y=1.515 $x2=0 $y2=0
137 X1/NET1:38 GND:42 7.42454e-06 // $x=10.635 $y=1.515 $x2=0 $y2=0
138 X1/NET1:39 GND:42 9.0425e-06 // $x=10.46 $y=1.515 $x2=0 $y2=0
139 X1/NET1:56 GND:42 5.01459e-06 // $x=12.235 $y=1.025 $x2=0 $y2=0
140 X1/NET1:7 GND:43 2.21587e-06 // $x=10.645 $y=2.395 $x2=0 $y2=0
141 X1/NET1:14 GND:43 1.97448e-05 // $x=10.635 $y=1.515 $x2=0 $y2=0
142 X1/NET1:38 GND:43 4.25549e-06 // $x=10.635 $y=1.515 $x2=0 $y2=0
143 X1/NET1:39 GND:43 0.000110054 // $x=10.46 $y=1.515 $x2=0 $y2=0
144 X1/NET1:1 GND:173 1.52315e-06 // $x=0.54 $y=3.01 $x2=0 $y2=0
145 X1/NET1:69 GND:173 9.71728e-07 // $x=0.475 $y=3.1 $x2=0 $y2=0
146 x1/x1/MN13:d GND:173 2.34784e-05 // $x=0.985 $y=1.735 $x2=0 $y2=0
147 X1/NET1:14 GND:192 3.01103e-06 // $x=10.635 $y=1.515 $x2=0 $y2=0
148 X1/NET1:14 GND:193 2.75008e-06 // $x=10.635 $y=1.515 $x2=0 $y2=0
149 X1/NET1:56 GND:202 1.23563e-05 // $x=12.235 $y=1.025 $x2=0 $y2=0
150 x1/x3/MP0:s GND:206 1.12799e-05 // $x=12.9 $y=5.015 $x2=0 $y2=0
151 X1/NET1:56 GND:218 1.28014e-06 // $x=12.235 $y=1.025 $x2=0 $y2=0
152 x1/x3/MP0:s GND:220 1.33082e-06 // $x=12.9 $y=5.015 $x2=0 $y2=0
153 X1/NET1:1 x1/x1/MN13:s 6.75062e-06 // $x=0.54 $y=3.01 $x2=0 $y2=0
154 X1/NET1:26 x1/x1/MN13:s 8.23742e-06 // $x=0.637 $y=2.955 $x2=0 $y2=0
155 X1/NET1:69 x1/x1/MN13:s 2.55365e-06 // $x=0.475 $y=3.1 $x2=0 $y2=0
156 x1/x1/MN13:d x1/x1/MN13:s 1.95035e-05 // $x=0.985 $y=1.735 $x2=0 $y2=0
157 x1/x1/MN13:d x1/x1/MN14:s 1.52582e-05 // $x=0.985 $y=1.735 $x2=0 $y2=0
158 X1/NET1:8 x1/x2/MN2:s 1.38835e-06 // $x=12.09 $y=2.48 $x2=0 $y2=0
159 X1/NET1:56 x1/x2/MN2:s 1.83144e-06 // $x=12.235 $y=1.025 $x2=0 $y2=0
160 x1/x3/MP0:s x1/x4/MN0:s 8.67204e-06 // $x=12.9 $y=5.015 $x2=0 $y2=0
161 X1/NET1:7 X1/NET5:2 2.34336e-06 // $x=10.645 $y=2.395 $x2=0 $y2=0
162 X1/NET1:14 X1/NET5:2 4.36126e-06 // $x=10.635 $y=1.515 $x2=0 $y2=0
163 X1/NET1:59 X1/NET5:2 2.04214e-05 // $x=12.235 $y=2.48 $x2=0 $y2=0
164 X1/NET1:18 X1/NET5:6 1.26291e-06 // $x=12.235 $y=2.48 $x2=2.245 $y2=3.335
165 X1/NET1:56 X1/NET5:8 7.76332e-06 // $x=12.235 $y=1.025 $x2=0 $y2=0
166 X1/NET1:18 X1/NET5:21 6.00546e-06 // $x=12.235 $y=2.48 $x2=2.59 $y2=3.32
167 X1/NET1:59 X1/NET5:21 7.03979e-05 // $x=12.235 $y=2.48 $x2=2.59 $y2=3.32
168 x1/x2/MP1:s X1/NET5:21 4.64484e-05 // $x=12.055 $y=2.605 $x2=2.59 $y2=3.32
169 X1/NET1:56 x1/x2/MN0:d 3.14721e-05 // $x=12.235 $y=1.025 $x2=0 $y2=0
170 X1/NET1:59 x1/x2/MN0:d 2.23572e-06 // $x=12.235 $y=2.48 $x2=0 $y2=0
171 X1/NET1:22 X1/NET4:1 4.06176e-06 // $x=13.04 $y=6.77 $x2=0 $y2=0
172 X1/NET1:46 X1/NET4:1 2.23456e-05 // $x=12.92 $y=6.817 $x2=0 $y2=0
173 x1/x3/MP0:s X1/NET4:1 2.47434e-06 // $x=12.9 $y=5.015 $x2=0 $y2=0
174 x1/x3/MP0:s X1/NET4:2 1.04872e-05 // $x=12.9 $y=5.015 $x2=0 $y2=0
175 X1/NET1:22 X1/NET4:3 4.7204e-05 // $x=13.04 $y=6.77 $x2=2.12 $y2=2.215
176 X1/NET1:45 X1/NET4:3 1.3244e-05 // $x=13.085 $y=6.815 $x2=2.12 $y2=2.215
177 X1/NET1:46 X1/NET4:3 5.91107e-06 // $x=12.92 $y=6.817 $x2=2.12 $y2=2.215
178 x1/x3/MP0:s X1/NET4:3 2.2144e-05 // $x=12.9 $y=5.015 $x2=2.12 $y2=2.215
179 x1/x3/MP0:s X1/NET4:5 4.53757e-06 // $x=12.9 $y=5.015 $x2=2.245 $y2=3.335
180 X1/NET1:22 X1/NET4:6 8.20442e-06 // $x=13.04 $y=6.77 $x2=2.245 $y2=3.335
181 X1/NET1:45 X1/NET4:6 7.58234e-06 // $x=13.085 $y=6.815 $x2=2.245 $y2=3.335
182 x1/x3/MP0:s X1/NET4:6 6.30221e-06 // $x=12.9 $y=5.015 $x2=2.245 $y2=3.335
183 x1/x3/MP0:s X1/NET4:8 6.22523e-06 // $x=12.9 $y=5.015 $x2=0 $y2=0
184 x1/x3/MP0:s X1/NET4:22 2.76303e-05 // $x=12.9 $y=5.015 $x2=0 $y2=0
185 X1/NET1:22 X1/NET4:29 1.90477e-06 // $x=13.04 $y=6.77 $x2=0 $y2=0
186 x1/x3/MP0:s X1/NET4:29 1.683e-05 // $x=12.9 $y=5.015 $x2=0 $y2=0
187 x1/x3/MP0:s x1/x4/MP0:g 4.60507e-06 // $x=12.9 $y=5.015 $x2=0 $y2=0
188 x1/x3/MP0:s X1/NET4:45 1.09094e-05 // $x=12.9 $y=5.015 $x2=0 $y2=0
189 X1/NET1:22 x1/x3/MP1:d 9.40414e-06 // $x=13.04 $y=6.77 $x2=0 $y2=0
190 X1/NET1:46 x1/x3/MP1:d 7.75281e-06 // $x=12.92 $y=6.817 $x2=0 $y2=0
191 x1/x3/MP0:s x1/x3/MP1:d 0.000109815 // $x=12.9 $y=5.015 $x2=0 $y2=0
192 x1/x3/MP0:s X1/NET3:2 6.5906e-06 // $x=12.9 $y=5.015 $x2=0 $y2=0
193 x1/x3/MP0:s X1/NET3:8 2.1065e-06 // $x=12.9 $y=5.015 $x2=0 $y2=0
194 x1/x3/MP0:s X1/NET3:21 2.93326e-06 // $x=12.9 $y=5.015 $x2=2.59 $y2=3.32
195 x1/x3/MP0:s x1/x4/MP0:d 8.01033e-06 // $x=12.9 $y=5.015 $x2=0 $y2=0
196 X1/NET1:1 VDD:2 3.53798e-06 // $x=0.54 $y=3.01 $x2=0 $y2=0
197 X1/NET1:4 VDD:3 9.4527e-06 // $x=0.475 $y=3.1 $x2=2.12 $y2=2.215
198 X1/NET1:34 VDD:3 1.46406e-05 // $x=0.58 $y=3.1 $x2=2.12 $y2=2.215
199 X1/NET1:69 VDD:3 7.0885e-06 // $x=0.475 $y=3.1 $x2=2.12 $y2=2.215
200 X1/NET1:9 VDD:126 1.19731e-05 // $x=10.73 $y=2.48 $x2=0 $y2=0
201 X1/NET1:18 VDD:126 1.69163e-06 // $x=12.235 $y=2.48 $x2=0 $y2=0
202 X1/NET1:29 VDD:126 9.20302e-06 // $x=11.885 $y=2.565 $x2=0 $y2=0
203 X1/NET1:30 VDD:126 7.23663e-05 // $x=11.885 $y=6.745 $x2=0 $y2=0
204 X1/NET1:77 VDD:126 4.27027e-07 // $x=12.207 $y=2.805 $x2=0 $y2=0
205 x1/x2/MP1:s VDD:126 2.25748e-06 // $x=12.055 $y=2.605 $x2=0 $y2=0
206 x1/x3/MP0:s VDD:126 4.04097e-06 // $x=12.9 $y=5.015 $x2=0 $y2=0
207 X1/NET1:4 VDD:140 2.17269e-07 // $x=0.475 $y=3.1 $x2=0 $y2=0
208 X1/NET1:69 VDD:140 7.51703e-07 // $x=0.475 $y=3.1 $x2=0 $y2=0
209 X1/NET1:69 VDD:143 1.26126e-05 // $x=0.475 $y=3.1 $x2=0 $y2=0
210 X1/NET1:9 VDD:192 3.843e-06 // $x=10.73 $y=2.48 $x2=0 $y2=0
211 X1/NET1:8 VDD:204 2.23838e-06 // $x=12.09 $y=2.48 $x2=0 $y2=0
212 X1/NET1:18 VDD:204 1.107e-06 // $x=12.235 $y=2.48 $x2=0 $y2=0
213 X1/NET1:77 VDD:204 7.03137e-07 // $x=12.207 $y=2.805 $x2=0 $y2=0
214 x1/x2/MP1:s VDD:204 1.06713e-05 // $x=12.055 $y=2.605 $x2=0 $y2=0
215 x1/x3/MP0:s VDD:204 1.21812e-05 // $x=12.9 $y=5.015 $x2=0 $y2=0
216 X1/NET1:30 x1/x2/MP2:s 4.72165e-06 // $x=11.885 $y=6.745 $x2=0 $y2=0
217 X1/NET1:30 x1/x3/MP2:s 4.72165e-06 // $x=11.885 $y=6.745 $x2=0 $y2=0
218 x1/x3/MP0:s x1/x4/MP0:s 9.59213e-06 // $x=12.9 $y=5.015 $x2=0 $y2=0
219 X1/NET1:59 X1/X2/NSEL:6 1.40317e-05 // $x=12.235 $y=2.48 $x2=2.245 $y2=3.335
220 X1/NET1:14 X1/X2/NSEL:14 4.73079e-06 // $x=10.635 $y=1.515 $x2=0 $y2=0
221 X1/NET1:59 X1/X2/NSEL:14 2.68918e-05 // $x=12.235 $y=2.48 $x2=0 $y2=0
222 X1/NET1:8 X1/X2/NSEL:19 8.56844e-06 // $x=12.09 $y=2.48 $x2=2.245 $y2=3.32
223 X1/NET1:18 X1/X2/NSEL:19 7.13007e-07 // $x=12.235 $y=2.48 $x2=2.245 $y2=3.32
224 X1/NET1:29 X1/X2/NSEL:19 1.64918e-06 // $x=11.885 $y=2.565 $x2=2.245 $y2=3.32
225 X1/NET1:59 X1/X2/NSEL:19 2.68442e-05 // $x=12.235 $y=2.48 $x2=2.245 $y2=3.32
226 X1/NET1:56 x1/x2/MN0:g 1.20142e-05 // $x=12.235 $y=1.025 $x2=2.59 $y2=3.32
227 X1/NET1:56 X1/X2/NSEL:23 2.17852e-06 // $x=12.235 $y=1.025 $x2=1.945 $y2=1.735
228 X1/NET1:59 X1/X2/NSEL:23 1.34274e-05 // $x=12.235 $y=2.48 $x2=1.945 $y2=1.735
229 X1/NET1:8 X1/X2/NSEL:25 6.18647e-07 // $x=12.09 $y=2.48 $x2=2.425 $y2=2.985
230 X1/NET1:18 X1/X2/NSEL:25 2.93757e-06 // $x=12.235 $y=2.48 $x2=2.425 $y2=2.985
231 X1/NET1:59 X1/X2/NSEL:25 1.2931e-05 // $x=12.235 $y=2.48 $x2=2.425 $y2=2.985
232 X1/NET1:77 X1/X2/NSEL:25 1.64307e-06 // $x=12.207 $y=2.805 $x2=2.425 $y2=2.985
233 X1/NET1:59 X1/X2/NSEL:36 4.69871e-06 // $x=12.235 $y=2.48 $x2=0 $y2=0
234 X1/NET1:8 X1/X2/NSEL:40 2.00086e-06 // $x=12.09 $y=2.48 $x2=0 $y2=0
235 X1/NET1:59 X1/X2/NSEL:40 4.69028e-06 // $x=12.235 $y=2.48 $x2=0 $y2=0
236 X1/NET1:56 x1/x2/MN2:d 1.95923e-05 // $x=12.235 $y=1.025 $x2=0 $y2=0
237 X1/NET1:59 x1/x2/MN2:d 7.42582e-06 // $x=12.235 $y=2.48 $x2=0 $y2=0
238 X1/NET1:8 x1/x2/MP2:d 1.54658e-05 // $x=12.09 $y=2.48 $x2=0 $y2=0
239 X1/NET1:18 x1/x2/MP2:d 1.59399e-06 // $x=12.235 $y=2.48 $x2=0 $y2=0
240 X1/NET1:30 x1/x2/MP2:d 1.09698e-05 // $x=11.885 $y=6.745 $x2=0 $y2=0
241 X1/NET1:59 x1/x2/MP2:d 7.37574e-06 // $x=12.235 $y=2.48 $x2=0 $y2=0
242 X1/NET1:77 x1/x2/MP2:d 4.84673e-05 // $x=12.207 $y=2.805 $x2=0 $y2=0
243 X1/NET1:32 X1/X3/NSEL:6 1.26154e-06 // $x=11.965 $y=6.83 $x2=2.245 $y2=3.335
244 X1/NET1:30 X1/X3/NSEL:14 7.64518e-06 // $x=11.885 $y=6.745 $x2=0 $y2=0
245 X1/NET1:32 X1/X3/NSEL:14 1.96983e-06 // $x=11.965 $y=6.83 $x2=0 $y2=0
246 X1/NET1:46 X1/X3/NSEL:14 4.85865e-07 // $x=12.92 $y=6.817 $x2=0 $y2=0
247 X1/NET1:32 X1/X3/NSEL:19 3.61086e-06 // $x=11.965 $y=6.83 $x2=2.245 $y2=3.32
248 x1/x3/MP0:s X1/X3/NSEL:19 6.22937e-07 // $x=12.9 $y=5.015 $x2=2.245 $y2=3.32
249 x1/x3/MP0:s x1/x3/MP0:g 4.56646e-05 // $x=12.9 $y=5.015 $x2=0 $y2=0
250 X1/NET1:22 X1/X3/NSEL:23 4.89975e-06 // $x=13.04 $y=6.77 $x2=1.945 $y2=1.735
251 X1/NET1:46 X1/X3/NSEL:23 1.58259e-06 // $x=12.92 $y=6.817 $x2=1.945 $y2=1.735
252 X1/NET1:46 X1/X3/NSEL:36 7.2286e-07 // $x=12.92 $y=6.817 $x2=0 $y2=0
253 x1/x3/MP0:s x1/x3/MN2:d 4.5864e-07 // $x=12.9 $y=5.015 $x2=0 $y2=0
254 X1/NET1:30 x1/x3/MP2:d 1.39634e-05 // $x=11.885 $y=6.745 $x2=0 $y2=0
255 x1/x3/MP0:s 7.04409e-05 // $x=12.9 $y=5.015
256 x1/x2/MP1:s 1.33199e-05 // $x=12.055 $y=2.605
257 x1/x1/MN13:d 1.51286e-05 // $x=0.985 $y=1.735
258 X1/NET1:77 4.74816e-06 // $x=12.207 $y=2.805
259 X1/NET1:69 3.53046e-05 // $x=0.475 $y=3.1
260 X1/NET1:59 1.37966e-05 // $x=12.235 $y=2.48
261 X1/NET1:56 8.74903e-06 // $x=12.235 $y=1.025
262 X1/NET1:46 2.65389e-05 // $x=12.92 $y=6.817
263 X1/NET1:45 3.25324e-06 // $x=13.085 $y=6.815
264 X1/NET1:39 0.000116344 // $x=10.46 $y=1.515
265 X1/NET1:38 6.76923e-07 // $x=10.635 $y=1.515
266 X1/NET1:34 6.39932e-05 // $x=0.58 $y=3.1
267 X1/NET1:32 6.14807e-06 // $x=11.965 $y=6.83
268 X1/NET1:30 5.09002e-05 // $x=11.885 $y=6.745
269 X1/NET1:29 8.58432e-06 // $x=11.885 $y=2.565
270 X1/NET1:28 5.35274e-06 // $x=0.725 $y=1.507
271 X1/NET1:26 4.16856e-05 // $x=0.637 $y=2.955
272 X1/NET1:22 1.45268e-05 // $x=13.04 $y=6.77
273 X1/NET1:18 8.08696e-06 // $x=12.235 $y=2.48
274 X1/NET1:14 1.5287e-05 // $x=10.635 $y=1.515
275 X1/NET1:9 5.58757e-06 // $x=10.73 $y=2.48
276 X1/NET1:8 2.78496e-05 // $x=12.09 $y=2.48
277 X1/NET1:7 1.99898e-05 // $x=10.645 $y=2.395
278 X1/NET1:4 9.3533e-06 // $x=0.475 $y=3.1
279 X1/NET1:1 2.44823e-05 // $x=0.54 $y=3.01

*RES
280 X1/NET1:77 x1/x2/MP1:s 33.5401 // $w=0.187 $lvl=li $x=12.18 $y=2.805 $x2=12.18 $y2=3.295 $l=0.49
281 X1/NET1:76 X1/NET1:77 8.97593 // $w=0.242 $lvl=li $x=12.207 $y=2.635 $x2=12.207 $y2=2.805 $l=0.17
282 X1/NET1:75 x1/x1/MN13:d 9.50857 // $w=0.35 $lvl=li $x=1.132 $y=2.18 $x2=1.132 $y2=1.92 $l=0.26
283 X1/NET1:69 x1/x1/MP14:d 7.81395 // $w=0.344 $lvl=li $x=0.587 $y=3.1 $x2=0.587 $y2=3.31 $l=0.21
284 X1/NET1:64 x1/x3/MN1:s 92.7487 // $w=0.187 $lvl=li $x=13.04 $y=6.77 $x2=13.04 $y2=8.125 $l=1.355
285 X1/NET1:64 x1/x3/MP0:s 81.1123 // $w=0.187 $lvl=li $x=13.04 $y=6.77 $x2=13.04 $y2=5.585 $l=1.185
286 X1/NET1:59 X1/NET1:76 10.6096 // $w=0.187 $lvl=li $x=12.235 $y=2.48 $x2=12.235 $y2=2.635 $l=0.155
287 X1/NET1:56 x1/x2/MN0:s 18.2793 // $w=0.191 $lvl=li $x=12.235 $y=1.025 $x2=12.207 $y2=0.755 $l=0.283655
288 X1/NET1:56 X1/NET1:59 99.5936 // $w=0.187 $lvl=li $x=12.235 $y=1.025 $x2=12.235 $y2=2.48 $l=1.455
289 X1/NET1:45 X1/NET1:46 0.109481 // $w=0.286 $lvl=m2 $x=13.085 $y=6.817 $x2=12.92 $y2=6.817 $l=0.165
290 X1/NET1:38 X1/NET1:39 0.110881 // $w=0.311 $lvl=m2 $x=10.635 $y=1.515 $x2=10.46 $y2=1.515 $l=0.175
291 X1/NET1:32 X1/NET1:46 0.91126 // $w=0.131 $lvl=m2 $x=11.965 $y=6.83 $x2=12.92 $y2=6.83 $l=0.955
292 X1/NET1:30 X1/NET1:32 0.0699246 // $w=0.17 $lvl=m2 $x=11.885 $y=6.745 $x2=11.965 $y2=6.83 $l=0.118427
293 X1/NET1:29 X1/NET1:43 0.200711 // $w=0.246 $lvl=m2 $x=11.885 $y=2.525 $x2=12.28 $y2=2.525 $l=0.395
294 X1/NET1:29 X1/NET1:30 4.31818 // $w=0.121 $lvl=m2 $x=11.885 $y=2.565 $x2=11.885 $y2=6.745 $l=4.18
295 X1/NET1:28 X1/NET1:39 8.94761 // $w=0.136 $lvl=m2 $x=0.725 $y=1.507 $x2=10.46 $y2=1.507 $l=9.735
296 X1/NET1:26 X1/NET1:34 0.0827181 // $w=0.342 $lvl=m2 $x=0.637 $y=2.955 $x2=0.63 $y2=3.1 $l=0.148459
297 X1/NET1:25 X1/NET1:28 0.0698411 // $w=0.175 $lvl=m2 $x=0.637 $y=1.595 $x2=0.725 $y2=1.507 $l=0.124451
298 X1/NET1:25 X1/NET1:26 1.25 // $w=0.136 $lvl=m2 $x=0.637 $y=1.595 $x2=0.637 $y2=2.955 $l=1.36
299 X1/NET1:24 X1/NET1:45 4.5 // $w=0.15 $lvl=via1 $x=13.085 $y=6.815 $x2=13.085 $y2=6.815 $l=0.15 $count=1
300 X1/NET1:22 X1/NET1:64 9.3 // $w=0.17 $lvl=mcon $x=13.04 $y=6.77 $x2=13.04 $y2=6.77 $l=0.17 $count=1
301 X1/NET1:22 X1/NET1:24 0.0208333 // $w=0.27 $lvl=m1 $x=13.04 $y=6.817 $x2=13.085 $y2=6.817 $l=0.045
302 X1/NET1:20 X1/NET1:43 4.5 // $w=0.15 $lvl=via1 $x=12.28 $y=2.525 $x2=12.28 $y2=2.525 $l=0.15 $count=1
303 X1/NET1:18 X1/NET1:59 9.3 // $w=0.17 $lvl=mcon $x=12.235 $y=2.48 $x2=12.235 $y2=2.48 $l=0.17 $count=1
304 X1/NET1:18 X1/NET1:20 0.0179712 // $w=0.313 $lvl=m1 $x=12.235 $y=2.525 $x2=12.28 $y2=2.525 $l=0.045
305 X1/NET1:14 X1/NET1:38 4.5 // $w=0.15 $lvl=via1 $x=10.635 $y=1.515 $x2=10.635 $y2=1.515 $l=0.15 $count=1
306 X1/NET1:14 X1/NET1:16 0.113504 // $w=0.311 $lvl=m1 $x=10.635 $y=1.515 $x2=10.635 $y2=1.69 $l=0.175
307 X1/NET1:12 X1/NET1:75 9.3 // $w=0.17 $lvl=mcon $x=1.045 $y=2.18 $x2=1.045 $y2=2.18 $l=0.17 $count=1
308 X1/NET1:8 X1/NET1:18 0.0838195 // $w=0.313 $lvl=m1 $x=12.09 $y=2.48 $x2=12.235 $y2=2.525 $l=0.165982
309 X1/NET1:8 X1/NET1:9 1.29771 // $w=0.131 $lvl=m1 $x=12.09 $y=2.48 $x2=10.73 $y2=2.48 $l=1.36
310 X1/NET1:7 X1/NET1:9 0.0698411 // $w=0.17 $lvl=m1 $x=10.645 $y=2.395 $x2=10.73 $y2=2.48 $l=0.120208
311 X1/NET1:7 X1/NET1:16 0.67271 // $w=0.131 $lvl=m1 $x=10.645 $y=2.395 $x2=10.645 $y2=1.69 $l=0.705
312 X1/NET1:4 X1/NET1:69 9.3 // $w=0.17 $lvl=mcon $x=0.475 $y=3.1 $x2=0.475 $y2=3.1 $l=0.17 $count=1
313 X1/NET1:4 X1/NET1:34 4.5 // $w=0.15 $lvl=via1 $x=0.58 $y=3.1 $x2=0.58 $y2=3.1 $l=0.15 $count=1
314 X1/NET1:1 X1/NET1:12 0.318296 // $w=0.34 $lvl=m1 $x=0.54 $y=3.01 $x2=1.045 $y2=2.18 $l=1.05264
315 X1/NET1:1 X1/NET1:4 0.0373754 // $w=0.301 $lvl=m1 $x=0.54 $y=3.01 $x2=0.54 $y2=3.1 $l=0.09
316 x1/x1/MN14:d x1/x1/MN13:d 0.01 // $x=0.985 $y=1.735 $x2=0.985 $y2=1.735 $l=0

*END

*D_NET X1/NET8 0.000729681
*CONN
*I x1/x1/MN12:d B 
*I x1/x1/MN11:d B 
*I x1/x1/MP12:d B 

*CAP
0 X1/NET8:4 X1/NET1:1 1.29072e-05 // $x=2.04 $y=2.215 $x2=0.54 $y2=3.01
1 X1/NET8:4 X1/NET1:26 1.8168e-05 // $x=2.04 $y=2.215 $x2=0.637 $y2=2.955
2 X1/NET8:4 X1/NET1:34 3.44369e-06 // $x=2.04 $y=2.215 $x2=0.58 $y2=3.1
3 X1/NET8:4 X1/NET1:39 4.26234e-05 // $x=2.04 $y=2.215 $x2=10.46 $y2=1.515
4 X1/NET8:4 x1/x1/MN13:d 3.7469e-06 // $x=2.04 $y=2.215 $x2=0.985 $y2=1.735
5 x1/x1/MN12:d X1/NET1:1 2.63403e-06 // $x=1.945 $y=1.735 $x2=0.54 $y2=3.01
6 x1/x1/MN12:d x1/x1/MN13:d 2.49429e-06 // $x=1.945 $y=1.735 $x2=0.985 $y2=1.735
7 X1/NET8:4 X1/NET10:4 1.97568e-05 // $x=2.04 $y=2.215 $x2=0.475 $y2=3.1
8 X1/NET8:4 X1/NET10:6 2.9319e-05 // $x=2.04 $y=2.215 $x2=10.645 $y2=1.69
9 X1/NET8:20 X1/NET10:6 3.76121e-06 // $x=2.245 $y=3.335 $x2=10.645 $y2=1.69
10 X1/NET8:4 X1/NET10:18 8.90064e-06 // $x=2.04 $y=2.215 $x2=12.235 $y2=2.48
11 X1/NET8:20 X1/NET10:18 7.73473e-07 // $x=2.245 $y=3.335 $x2=12.235 $y2=2.48
12 X1/NET8:4 X1/NET10:22 7.42085e-07 // $x=2.04 $y=2.215 $x2=13.04 $y2=6.77
13 X1/NET8:20 X1/NET10:22 3.36663e-05 // $x=2.245 $y=3.335 $x2=13.04 $y2=6.77
14 X1/NET8:4 x1/x1/MP12:g 5.93419e-06 // $x=2.04 $y=2.215 $x2=11.885 $y2=6.745
15 X1/NET8:20 x1/x1/MP12:g 2.43451e-05 // $x=2.245 $y=3.335 $x2=11.885 $y2=6.745
16 X1/NET8:4 X1/NET10:31 2.7771e-06 // $x=2.04 $y=2.215 $x2=12.92 $y2=6.83
17 x1/x1/MN12:d X1/NET10:31 4.80247e-06 // $x=1.945 $y=1.735 $x2=12.92 $y2=6.83
18 X1/NET8:4 X1/NET10:37 2.28319e-06 // $x=2.04 $y=2.215 $x2=10.635 $y2=1.515
19 X1/NET8:20 X1/NET10:37 1.71481e-06 // $x=2.245 $y=3.335 $x2=10.635 $y2=1.515
20 x1/x1/MN12:d X1/NET10:37 7.37286e-07 // $x=1.945 $y=1.735 $x2=10.635 $y2=1.515
21 x1/x1/MN12:d x1/x1/MN9:d 1.38929e-06 // $x=1.945 $y=1.735 $x2=10.635 $y2=1.515
22 X1/NET8:4 X1/NET9:4 9.68014e-06 // $x=2.04 $y=2.215 $x2=0.475 $y2=3.1
23 X1/NET8:4 X1/X1/NET6:28 6.93774e-07 // $x=2.04 $y=2.215 $x2=0.725 $y2=1.507
24 X1/NET8:4 X1/NET11:16 6.92406e-07 // $x=2.04 $y=2.215 $x2=10.635 $y2=1.69
25 X1/NET8:4 X1/NET6:2 2.19794e-05 // $x=2.04 $y=2.215 $x2=0 $y2=0
26 X1/NET8:4 X1/NET6:14 2.84805e-06 // $x=2.04 $y=2.215 $x2=10.635 $y2=1.515
27 X1/NET8:20 X1/NET6:14 8.22295e-07 // $x=2.245 $y=3.335 $x2=10.635 $y2=1.515
28 X1/NET8:4 X1/NET6:28 1.27406e-06 // $x=2.04 $y=2.215 $x2=0.725 $y2=1.507
29 X1/NET8:20 X1/NET6:28 6.61926e-07 // $x=2.245 $y=3.335 $x2=0.725 $y2=1.507
30 X1/NET8:4 X1/X1/NET9:2 2.16758e-05 // $x=2.04 $y=2.215 $x2=0 $y2=0
31 X1/NET8:20 X1/X1/NET9:2 8.85828e-06 // $x=2.245 $y=3.335 $x2=0 $y2=0
32 X1/NET8:4 X1/X1/NET9:10 1.66466e-06 // $x=2.04 $y=2.215 $x2=0 $y2=0
33 X1/NET8:4 X1/X1/NET9:18 3.25328e-05 // $x=2.04 $y=2.215 $x2=12.235 $y2=2.48
34 X1/NET8:20 X1/X1/NET9:18 2.96791e-06 // $x=2.245 $y=3.335 $x2=12.235 $y2=2.48
35 X1/NET8:4 X1/X1/NET9:26 2.6329e-06 // $x=2.04 $y=2.215 $x2=0.637 $y2=2.955
36 X1/NET8:20 X1/X1/NET9:26 5.63281e-07 // $x=2.245 $y=3.335 $x2=0.637 $y2=2.955
37 X1/NET8:20 x1/x1/MP10:g 1.01435e-06 // $x=2.245 $y=3.335 $x2=13.085 $y2=6.817
38 X1/NET8:4 X1/X1/NET8:2 1.95723e-05 // $x=2.04 $y=2.215 $x2=0 $y2=0
39 X1/NET8:4 X1/X1/NET8:14 9.20524e-05 // $x=2.04 $y=2.215 $x2=10.635 $y2=1.515
40 x1/x1/MN12:d X1/X1/NET8:14 2.58975e-07 // $x=1.945 $y=1.735 $x2=10.635 $y2=1.515
41 X1/NET8:4 X1/X1/NET8:22 1.58366e-05 // $x=2.04 $y=2.215 $x2=13.04 $y2=6.77
42 X1/NET8:4 x1/x1/MP11:g 3.91818e-06 // $x=2.04 $y=2.215 $x2=10.635 $y2=1.515
43 X1/NET8:20 x1/x1/MP11:g 5.81494e-06 // $x=2.245 $y=3.335 $x2=10.635 $y2=1.515
44 X1/NET8:4 X1/X1/NET8:39 4.86381e-06 // $x=2.04 $y=2.215 $x2=10.46 $y2=1.515
45 x1/x1/MN12:d X1/X1/NET8:39 1.01763e-05 // $x=1.945 $y=1.735 $x2=10.46 $y2=1.515
46 X1/NET8:4 X1/X1/NET8:45 5.25645e-06 // $x=2.04 $y=2.215 $x2=13.085 $y2=6.815
47 x1/x1/MN12:d X1/X1/NET8:45 2.07925e-06 // $x=1.945 $y=1.735 $x2=13.085 $y2=6.815
48 X1/NET8:4 GND:28 1.37792e-05 // $x=2.04 $y=2.215 $x2=0.725 $y2=1.507
49 x1/x1/MN12:d GND:28 1.57442e-06 // $x=1.945 $y=1.735 $x2=0.725 $y2=1.507
50 X1/NET8:4 GND:29 3.46391e-05 // $x=2.04 $y=2.215 $x2=11.885 $y2=2.565
51 x1/x1/MN12:d GND:29 4.34437e-06 // $x=1.945 $y=1.735 $x2=11.885 $y2=2.565
52 X1/NET8:4 GND:173 2.24939e-06 // $x=2.04 $y=2.215 $x2=0 $y2=0
53 x1/x1/MN12:d GND:173 1.66511e-05 // $x=1.945 $y=1.735 $x2=0 $y2=0
54 X1/NET8:4 x1/x1/MN14:s 4.14558e-06 // $x=2.04 $y=2.215 $x2=0 $y2=0
55 x1/x1/MN12:d x1/x1/MN14:s 1.47428e-05 // $x=1.945 $y=1.735 $x2=0 $y2=0
56 X1/NET8:4 x1/x1/MN11:s 7.15218e-07 // $x=2.04 $y=2.215 $x2=0 $y2=0
57 X1/NET8:20 x1/x1/MN11:s 1.81677e-06 // $x=2.245 $y=3.335 $x2=0 $y2=0
58 x1/x1/MN12:d x1/x1/MN11:s 8.39478e-06 // $x=1.945 $y=1.735 $x2=0 $y2=0
59 X1/NET8:4 VDD:2 1.3228e-05 // $x=2.04 $y=2.215 $x2=0 $y2=0
60 X1/NET8:20 VDD:2 5.95017e-06 // $x=2.245 $y=3.335 $x2=0 $y2=0
61 X1/NET8:4 VDD:148 3.53364e-07 // $x=2.04 $y=2.215 $x2=0 $y2=0
62 X1/NET8:20 VDD:148 1.28649e-05 // $x=2.245 $y=3.335 $x2=0 $y2=0
63 x1/x1/MN12:d 1.97164e-05 // $x=1.945 $y=1.735
64 X1/NET8:20 1.30852e-05 // $x=2.245 $y=3.335
65 X1/NET8:4 6.41182e-05 // $x=2.04 $y=2.215

*RES
66 X1/NET8:20 x1/x1/MP12:d 11.5906 // $w=0.381 $lvl=li $x=2.245 $y=3.32 $x2=2.59 $y2=3.32 $l=0.345
67 X1/NET8:18 x1/x1/MN12:d 12.3399 // $w=0.306 $lvl=li $x=2.077 $y=2.215 $x2=2.077 $y2=1.92 $l=0.295
68 X1/NET8:6 X1/NET8:20 9.3 // $w=0.17 $lvl=mcon $x=2.245 $y=3.335 $x2=2.245 $y2=3.335 $l=0.17 $count=1
69 X1/NET8:4 X1/NET8:18 9.3 // $w=0.17 $lvl=mcon $x=2.04 $y=2.215 $x2=2.04 $y2=2.215 $l=0.17 $count=1
70 X1/NET8:4 X1/NET8:6 0.76087 // $w=0.184 $lvl=m1 $x=2.12 $y=2.215 $x2=2.245 $y2=3.335 $l=1.18085
71 x1/x1/MN11:d x1/x1/MN12:d 0.01 // $x=1.945 $y=1.735 $x2=1.945 $y2=1.735 $l=0

*END

*D_NET X1/NET10 0.00127294
*CONN
*I x1/x1/MN11:g I 
*I x1/x1/MP12:g I 
*I x1/x1/MN9:d B 
*I x1/x1/MN10:d B 
*I x1/x1/MP10:d B 

*CAP
0 X1/NET10:4 X1/NET1:26 4.21581e-07 // $x=2.835 $y=2.57 $x2=0.637 $y2=2.955
1 X1/NET10:4 X1/NET1:34 1.81638e-05 // $x=2.835 $y=2.57 $x2=0.58 $y2=3.1
2 X1/NET10:4 X1/NET8:4 1.97568e-05 // $x=2.835 $y=2.57 $x2=0.475 $y2=3.1
3 X1/NET10:6 X1/NET8:4 2.9319e-05 // $x=2.97 $y=3.085 $x2=0.475 $y2=3.1
4 X1/NET10:6 X1/NET8:20 3.76121e-06 // $x=2.97 $y=3.085 $x2=12.28 $y2=2.525
5 X1/NET10:18 X1/NET8:4 8.90064e-06 // $x=2.35 $y=2.66 $x2=0.475 $y2=3.1
6 X1/NET10:18 X1/NET8:20 7.73473e-07 // $x=2.35 $y=2.66 $x2=12.28 $y2=2.525
7 X1/NET10:22 X1/NET8:4 7.42085e-07 // $x=2.97 $y=3.085 $x2=0.475 $y2=3.1