*SPEF "2.0"
*DESIGN "SKY130_OSU_RING_OSCILLATOR_MPR2CA_8"
*DATE "Fri Oct 27 10:30:17 2023"
*VENDOR "Mentor Graphics Corp."
*PROGRAM "Calibre xRC"
*VERSION "v2023.2_27.15"
*DESIGN_FLOW "extraction"
*DIVIDER /
*DELIMITER :
*BUS_DELIMITER []
*T_UNIT 1 NS
*C_UNIT 1 PF
*R_UNIT 1 OHM
*L_UNIT 1 HENRY



// CIRCUIT TEMPERATURE 30C
// NOMINAL TEMPERATURE 30C

*PORTS 
 X5_Y1 B
 VDD B
 GND B
 X4_Y1 B
 X3_Y1 B
 X2_Y1 B
 X1_Y1 B
 S5 B
 S4 B
 S3 B
 S2 B
 S1 B

*D_NET NET5 0.0153714
*CONN
*I x1/x1/MN16:g I 
*I x1/x1/MN12:g I 
*I x1/x1/MP16:g I 
*I x1/x1/MP11:g I 
*I x1/x3/MN0:s B 
*I x1/x2/MN1:s B 
*I x5/x7/MN0:d B 
*I x1/x3/MP1:s B 
*I x1/x2/MP0:s B 
*I x5/x7/MP0:d B 

*CAP
0 NET5:23 X1/NET1:10 5.49349e-06 // $x=13.155 $y=2.05 $x2=14.86 $y2=0.875
1 NET5:52 X1/NET1:10 2.60851e-05 // $x=15.52 $y=0.505 $x2=14.86 $y2=0.875
2 NET5:59 X1/NET1:10 7.05266e-06 // $x=15.662 $y=4.09 $x2=14.86 $y2=0.875
3 NET5:56 X1/NET1:14 1.62208e-05 // $x=15.575 $y=4.177 $x2=15.665 $y2=5.165
4 NET5:23 X1/NET1:25 1.6533e-06 // $x=13.155 $y=2.05 $x2=14.51 $y2=0.96
5 NET5:52 X1/NET1:25 6.22193e-05 // $x=15.52 $y=0.505 $x2=14.51 $y2=0.96
6 NET5:59 X1/NET1:25 1.69474e-05 // $x=15.662 $y=4.09 $x2=14.51 $y2=0.96
7 NET5:23 X1/NET1:26 2.53618e-06 // $x=13.155 $y=2.05 $x2=14.51 $y2=1.62
8 NET5:59 X1/NET1:26 3.36463e-05 // $x=15.662 $y=4.09 $x2=14.51 $y2=1.62
9 NET5:30 X1/NET1:28 2.25458e-05 // $x=14.86 $y=4.795 $x2=14.51 $y2=5.14
10 NET5:47 X1/NET1:28 1.16782e-05 // $x=13.197 $y=5.02 $x2=14.51 $y2=5.14
11 NET5:59 X1/NET1:28 4.43957e-05 // $x=15.662 $y=4.09 $x2=14.51 $y2=5.14
12 NET5:78 X1/NET1:28 3.63114e-05 // $x=14.905 $y=4.84 $x2=14.51 $y2=5.14
13 NET5:81 X1/NET1:28 5.61665e-05 // $x=14.862 $y=4.177 $x2=14.51 $y2=5.14
14 NET5:114 X1/NET1:28 2.26579e-07 // $x=14.86 $y=4.795 $x2=14.51 $y2=5.14
15 x1/x3/MP1:s X1/NET1:28 9.60888e-06 // $x=14.68 $y=3.41 $x2=14.51 $y2=5.14
16 NET5:44 X1/NET1:30 1.16782e-05 // $x=13.115 $y=5.102 $x2=14.59 $y2=5.225
17 NET5:22 X1/NET1:41 4.31473e-06 // $x=13.155 $y=2.21 $x2=14.51 $y2=1.707
18 NET5:23 X1/NET1:41 8.05334e-05 // $x=13.155 $y=2.05 $x2=14.51 $y2=1.707
19 NET5:26 X1/NET1:41 1.05169e-05 // $x=13.24 $y=0.55 $x2=14.51 $y2=1.707
20 NET5:49 X1/NET1:41 2.45243e-05 // $x=13.217 $y=0.39 $x2=14.51 $y2=1.707
21 NET5:52 X1/NET1:41 2.73647e-05 // $x=15.52 $y=0.505 $x2=14.51 $y2=1.707
22 NET5:69 X1/NET1:41 2.83411e-05 // $x=13.155 $y=2.21 $x2=14.51 $y2=1.707
23 NET5:76 X1/NET1:41 3.246e-05 // $x=13.4 $y=0.552 $x2=14.51 $y2=1.707
24 NET5:56 X1/NET1:46 7.0982e-06 // $x=15.575 $y=4.177 $x2=15.71 $y2=5.21
25 NET5:30 X1/NET1:47 2.57321e-05 // $x=14.86 $y=4.795 $x2=15.545 $y2=5.212
26 NET5:56 X1/NET1:47 1.41035e-05 // $x=15.575 $y=4.177 $x2=15.545 $y2=5.212
27 NET5:78 X1/NET1:47 3.98071e-05 // $x=14.905 $y=4.84 $x2=15.545 $y2=5.212
28 NET5:112 X1/NET1:47 1.14262e-06 // $x=14.86 $y=6.25 $x2=15.545 $y2=5.212
29 NET5:114 X1/NET1:47 6.66998e-06 // $x=14.86 $y=4.795 $x2=15.545 $y2=5.212
30 NET5:50 X1/NET1:55 2.79139e-06 // $x=74.64 $y=-1.272 $x2=14.86 $y2=-0.58
31 NET5:52 X1/NET1:55 8.17475e-07 // $x=15.52 $y=0.505 $x2=14.86 $y2=-0.58
32 x1/x2/MN1:s X1/NET1:55 1.56801e-06 // $x=15.525 $y=-1.03 $x2=14.86 $y2=-0.58
33 NET5:52 X1/NET1:58 5.69884e-06 // $x=15.52 $y=0.505 $x2=14.86 $y2=0.875
34 x1/x2/MN1:s X1/NET1:58 1.1843e-05 // $x=15.525 $y=-1.03 $x2=14.86 $y2=0.875
35 x1/x3/MP1:s x1/x2/MP1:s 1.0705e-06 // $x=14.68 $y=3.41 $x2=14.68 $y2=1
36 NET5:56 x1/x3/MP0:s 6.25594e-06 // $x=15.575 $y=4.177 $x2=15.525 $y2=3.41
37 NET5:59 x1/x3/MP0:s 1.14907e-05 // $x=15.662 $y=4.09 $x2=15.525 $y2=3.41
38 NET5:112 x1/x3/MP0:s 1.56801e-06 // $x=14.86 $y=6.25 $x2=15.525 $y2=3.41
39 NET5:114 x1/x3/MP0:s 1.27864e-05 // $x=14.86 $y=4.795 $x2=15.525 $y2=3.41
40 x1/x3/MP1:s x1/x3/MP0:s 2.2934e-06 // $x=14.68 $y=3.41 $x2=15.525 $y2=3.41
41 NET5:5 X1/NET7:1 1.69405e-05 // $x=9.275 $y=5.035 $x2=0 $y2=0
42 NET5:6 X1/NET7:1 1.23763e-06 // $x=8.315 $y=5.035 $x2=0 $y2=0
43 NET5:6 X1/NET7:2 1.6272e-05 // $x=8.315 $y=5.035 $x2=0 $y2=0
44 NET5:14 X1/NET7:2 9.20554e-06 // $x=7.135 $y=4.355 $x2=0 $y2=0
45 NET5:63 X1/NET7:2 1.10367e-05 // $x=8.145 $y=5.035 $x2=0 $y2=0
46 NET5:99 X1/NET7:2 2.70629e-07 // $x=7.205 $y=4.385 $x2=0 $y2=0
47 NET5:5 X1/NET7:5 6.5038e-06 // $x=9.275 $y=5.035 $x2=0 $y2=0
48 NET5:19 X1/NET7:5 3.51388e-05 // $x=9.345 $y=4.355 $x2=0 $y2=0
49 NET5:44 X1/NET7:5 1.89494e-05 // $x=13.115 $y=5.102 $x2=0 $y2=0
50 NET5:102 X1/NET7:5 5.50038e-06 // $x=9.345 $y=4.355 $x2=0 $y2=0
51 x1/x1/MP11:g X1/NET7:5 1.41918e-06 // $x=9.335 $y=3.56 $x2=0 $y2=0
52 NET5:159 X1/NET7:5 7.66634e-07 // $x=9.335 $y=4.385 $x2=0 $y2=0
53 NET5:2 X1/NET7:13 3.77649e-06 // $x=7.135 $y=4.965 $x2=15.665 $y2=5.212
54 NET5:5 X1/NET7:13 2.83479e-05 // $x=9.275 $y=5.035 $x2=15.665 $y2=5.212
55 NET5:8 X1/NET7:13 5.26393e-06 // $x=9.345 $y=4.965 $x2=15.665 $y2=5.212
56 NET5:14 X1/NET7:13 2.59287e-06 // $x=7.135 $y=4.355 $x2=15.665 $y2=5.212
57 NET5:19 X1/NET7:13 2.83161e-05 // $x=9.345 $y=4.355 $x2=15.665 $y2=5.212
58 NET5:44 X1/NET7:13 3.69004e-05 // $x=13.115 $y=5.102 $x2=15.665 $y2=5.212
59 NET5:63 X1/NET7:13 2.1643e-05 // $x=8.145 $y=5.035 $x2=15.665 $y2=5.212
60 NET5:102 X1/NET7:13 1.59709e-06 // $x=9.345 $y=4.355 $x2=15.665 $y2=5.212
61 NET5:44 X1/NET7:16 6.07422e-06 // $x=13.115 $y=5.102 $x2=15.71 $y2=5.21
62 NET5:3 X1/NET7:24 1.83426e-06 // $x=7.995 $y=5.035 $x2=0 $y2=0
63 NET5:99 X1/NET7:24 2.38551e-05 // $x=7.205 $y=4.385 $x2=0 $y2=0
64 NET5:155 X1/NET7:24 4.24929e-06 // $x=7.205 $y=4.385 $x2=0 $y2=0
65 NET5:6 X1/NET7:32 2.18576e-06 // $x=8.315 $y=5.035 $x2=0 $y2=0
66 NET5:14 X1/NET7:32 2.70629e-07 // $x=7.135 $y=4.355 $x2=0 $y2=0
67 NET5:99 X1/NET7:32 3.22645e-07 // $x=7.205 $y=4.385 $x2=0 $y2=0
68 x1/x1/MP11:g X1/NET7:32 1.82003e-06 // $x=9.335 $y=3.56 $x2=0 $y2=0
69 NET5:44 X1/NET7:36 2.94213e-06 // $x=13.115 $y=5.102 $x2=0 $y2=0
70 NET5:102 X1/NET7:36 6.80008e-07 // $x=9.345 $y=4.355 $x2=0 $y2=0
71 NET5:44 X1/NET7:38 1.86813e-06 // $x=13.115 $y=5.102 $x2=0 $y2=0
72 NET5:3 x1/x1/MN15:g 3.70843e-06 // $x=7.995 $y=5.035 $x2=0 $y2=0
73 NET5:63 x1/x1/MN15:g 3.27978e-07 // $x=8.145 $y=5.035 $x2=0 $y2=0
74 x1/x1/MN16:g x1/x1/MN15:g 4.13756e-05 // $x=7.295 $y=4.96 $x2=0 $y2=0
75 x1/x1/MP16:g x1/x1/MP15:g 4.13756e-05 // $x=7.295 $y=3.48 $x2=14.51 $y2=0.92
76 NET5:2 X1/NET7:58 6.51582e-07 // $x=7.135 $y=4.965 $x2=14.86 $y2=0.875
77 NET5:99 X1/NET7:58 1.07159e-06 // $x=7.205 $y=4.385 $x2=14.86 $y2=0.875
78 NET5:155 X1/NET7:58 4.52003e-05 // $x=7.205 $y=4.385 $x2=14.86 $y2=0.875
79 NET5:159 X1/NET7:58 3.93134e-06 // $x=9.335 $y=4.385 $x2=14.86 $y2=0.875
80 NET5:44 X1/NET7:61 6.94105e-07 // $x=13.115 $y=5.102 $x2=0 $y2=0
81 NET5:44 X1/NET7:63 2.41709e-06 // $x=13.115 $y=5.102 $x2=15.665 $y2=5.165
82 NET5:3 X1/NET6:1 5.80533e-06 // $x=7.995 $y=5.035 $x2=0 $y2=0
83 NET5:5 X1/NET6:1 1.25262e-06 // $x=9.275 $y=5.035 $x2=0 $y2=0
84 NET5:6 X1/NET6:1 4.61796e-07 // $x=8.315 $y=5.035 $x2=0 $y2=0
85 NET5:14 X1/NET6:1 8.64255e-06 // $x=7.135 $y=4.355 $x2=0 $y2=0
86 NET5:63 X1/NET6:1 8.79021e-06 // $x=8.145 $y=5.035 $x2=0 $y2=0
87 NET5:99 X1/NET6:1 2.26178e-07 // $x=7.205 $y=4.385 $x2=0 $y2=0
88 x1/x1/MP16:g X1/NET6:1 3.00764e-06 // $x=7.295 $y=3.48 $x2=0 $y2=0
89 x1/x1/MP11:g X1/NET6:7 8.16203e-06 // $x=9.335 $y=3.56 $x2=0 $y2=0
90 NET5:44 X1/NET6:18 1.88098e-05 // $x=13.115 $y=5.102 $x2=0 $y2=0
91 x1/x1/MP11:g X1/NET6:18 1.5571e-06 // $x=9.335 $y=3.56 $x2=0 $y2=0
92 x1/x1/MP11:g X1/NET6:19 9.45797e-07 // $x=9.335 $y=3.56 $x2=0 $y2=0
93 NET5:2 X1/NET6:25 6.00515e-06 // $x=7.135 $y=4.965 $x2=14.51 $y2=0.96
94 x1/x1/MP11:g x1/x1/MP7:g 2.60287e-06 // $x=9.335 $y=3.56 $x2=14.905 $y2=0.92
95 NET5:4 x1/x1/MN17:d 1.69959e-06 // $x=7.205 $y=5.035 $x2=0 $y2=0
96 NET5:23 X1/NET8:28 6.26363e-06 // $x=13.155 $y=2.05 $x2=14.51 $y2=5.14
97 NET5:23 X1/NET8:31 1.08852e-06 // $x=13.155 $y=2.05 $x2=0 $y2=0
98 NET5:8 X1/NET9:6 1.61478e-06 // $x=9.345 $y=4.965 $x2=0 $y2=0
99 NET5:19 X1/NET9:6 2.70027e-05 // $x=9.345 $y=4.355 $x2=0 $y2=0
100 NET5:44 X1/NET9:6 6.2198e-06 // $x=13.115 $y=5.102 $x2=0 $y2=0
101 NET5:102 X1/NET9:6 4.82041e-06 // $x=9.345 $y=4.355 $x2=0 $y2=0
102 NET5:8 X1/NET9:24 3.97751e-06 // $x=9.345 $y=4.965 $x2=0 $y2=0
103 NET5:44 X1/NET9:24 4.25835e-05 // $x=13.115 $y=5.102 $x2=0 $y2=0
104 NET5:102 X1/NET9:24 6.70384e-07 // $x=9.345 $y=4.355 $x2=0 $y2=0
105 NET5:8 X1/NET9:51 6.29845e-06 // $x=9.345 $y=4.965 $x2=14.805 $y2=1.2
106 NET5:19 X1/NET9:51 1.34719e-06 // $x=9.345 $y=4.355 $x2=14.805 $y2=1.2
107 NET5:44 X1/NET9:51 2.26454e-06 // $x=13.115 $y=5.102 $x2=14.805 $y2=1.2
108 NET5:102 X1/NET9:51 2.70034e-05 // $x=9.345 $y=4.355 $x2=14.805 $y2=1.2
109 NET5:159 X1/NET9:51 1.71122e-06 // $x=9.335 $y=4.385 $x2=14.805 $y2=1.2
110 x1/x1/MP11:g x1/x1/MP14:g 7.56542e-05 // $x=9.335 $y=3.56 $x2=15.665 $y2=5.165
111 NET5:44 X1/NET9:85 5.3506e-07 // $x=13.115 $y=5.102 $x2=0 $y2=0
112 NET5:102 X1/NET9:85 6.28251e-06 // $x=9.345 $y=4.355 $x2=0 $y2=0
113 NET5:159 X1/NET9:85 5.64084e-05 // $x=9.335 $y=4.385 $x2=0 $y2=0
114 NET5:44 X1/NET9:87 9.85712e-07 // $x=13.115 $y=5.102 $x2=0 $y2=0
115 NET5:160 X1/NET9:87 4.95907e-05 // $x=9.335 $y=4.55 $x2=0 $y2=0
116 NET5:44 X1/NET11:14 1.70095e-05 // $x=13.115 $y=5.102 $x2=15.665 $y2=5.165
117 NET5:47 X1/NET11:14 5.53706e-06 // $x=13.197 $y=5.02 $x2=15.665 $y2=5.165
118 NET5:44 X1/NET11:19 2.57753e-05 // $x=13.115 $y=5.102 $x2=0 $y2=0
119 NET5:44 X1/NET11:26 1.68439e-05 // $x=13.115 $y=5.102 $x2=14.51 $y2=1.62
120 NET5:47 X1/NET11:26 5.39995e-06 // $x=13.197 $y=5.02 $x2=14.51 $y2=1.62
121 NET5:44 X1/NET11:46 5.6877e-07 // $x=13.115 $y=5.102 $x2=15.71 $y2=5.21
122 x1/x1/MP16:g X1/NET11:74 3.04618e-06 // $x=7.295 $y=3.48 $x2=0 $y2=0
123 NET5:50 NET1:1 6.40595e-06 // $x=74.64 $y=-1.272 $x2=0 $y2=0
124 NET5:50 NET1:33 1.10555e-06 // $x=74.64 $y=-1.272 $x2=0 $y2=0
125 NET5:50 NET1:44 0.000263603 // $x=74.64 $y=-1.272 $x2=14.905 $y2=0.92
126 NET5:50 NET1:45 1.44243e-05 // $x=74.64 $y=-1.272 $x2=15.71 $y2=5.212
127 NET5:50 NET1:52 4.11542e-05 // $x=74.64 $y=-1.272 $x2=14.805 $y2=1.69
128 NET5:50 NET1:72 6.37925e-07 // $x=74.64 $y=-1.272 $x2=15.525 $y2=6.15
129 NET5:50 NET1:84 5.66232e-06 // $x=74.64 $y=-1.272 $x2=0 $y2=0
130 NET5:50 x1/x7/MN0:d 1.44052e-06 // $x=74.64 $y=-1.272 $x2=0 $y2=0
131 NET5:50 x2/x2/MN1:s 2.00733e-06 // $x=74.64 $y=-1.272 $x2=0 $y2=0
132 NET5:50 X2/NET1:55 2.79139e-06 // $x=74.64 $y=-1.272 $x2=14.86 $y2=-0.58
133 NET5:50 NET2:1 6.25549e-06 // $x=74.64 $y=-1.272 $x2=0 $y2=0
134 NET5:50 NET2:44 0.000285838 // $x=74.64 $y=-1.272 $x2=14.905 $y2=0.92
135 NET5:50 NET2:45 1.46155e-05 // $x=74.64 $y=-1.272 $x2=15.71 $y2=5.212
136 NET5:50 NET2:50 6.54631e-07 // $x=74.64 $y=-1.272 $x2=0 $y2=0
137 NET5:50 NET2:54 3.23452e-05 // $x=74.64 $y=-1.272 $x2=0 $y2=0
138 NET5:50 NET2:86 5.66232e-06 // $x=74.64 $y=-1.272 $x2=0 $y2=0
139 NET5:50 x2/x7/MN0:d 1.42906e-06 // $x=74.64 $y=-1.272 $x2=0 $y2=0
140 NET5:50 x3/x2/MN1:s 2.00733e-06 // $x=74.64 $y=-1.272 $x2=0 $y2=0
141 NET5:50 X3/NET1:55 2.79139e-06 // $x=74.64 $y=-1.272 $x2=14.86 $y2=-0.58
142 NET5:50 NET3:1 6.28046e-06 // $x=74.64 $y=-1.272 $x2=0 $y2=0
143 NET5:50 NET3:44 0.000283841 // $x=74.64 $y=-1.272 $x2=14.905 $y2=0.92
144 NET5:50 NET3:45 1.43299e-05 // $x=74.64 $y=-1.272 $x2=15.71 $y2=5.212
145 NET5:50 NET3:50 1.03739e-06 // $x=74.64 $y=-1.272 $x2=0 $y2=0
146 NET5:50 NET3:54 2.89242e-05 // $x=74.64 $y=-1.272 $x2=0 $y2=0
147 NET5:50 NET3:86 5.66232e-06 // $x=74.64 $y=-1.272 $x2=0 $y2=0
148 NET5:50 x3/x7/MN0:d 1.44597e-06 // $x=74.64 $y=-1.272 $x2=0 $y2=0
149 NET5:50 x4/x2/MN1:s 2.00733e-06 // $x=74.64 $y=-1.272 $x2=0 $y2=0
150 NET5:50 X4/NET1:55 2.79139e-06 // $x=74.64 $y=-1.272 $x2=14.86 $y2=-0.58
151 NET5:50 NET4:1 6.27214e-06 // $x=74.64 $y=-1.272 $x2=0 $y2=0
152 NET5:50 NET4:44 0.000292174 // $x=74.64 $y=-1.272 $x2=14.905 $y2=0.92
153 NET5:50 NET4:45 1.44243e-05 // $x=74.64 $y=-1.272 $x2=15.71 $y2=5.212
154 NET5:50 NET4:50 1.13093e-06 // $x=74.64 $y=-1.272 $x2=0 $y2=0
155 NET5:50 NET4:54 2.65065e-05 // $x=74.64 $y=-1.272 $x2=0 $y2=0
156 NET5:50 NET4:86 5.66232e-06 // $x=74.64 $y=-1.272 $x2=0 $y2=0
157 NET5:50 x4/x7/MN0:d 1.44035e-06 // $x=74.64 $y=-1.272 $x2=0 $y2=0
158 NET5:50 x5/x2/MN1:s 2.00733e-06 // $x=74.64 $y=-1.272 $x2=0 $y2=0
159 NET5:50 X5/NET1:41 2.27459e-07 // $x=74.64 $y=-1.272 $x2=14.51 $y2=1.707
160 NET5:50 X5/NET1:55 2.79139e-06 // $x=74.64 $y=-1.272 $x2=14.86 $y2=-0.58
161 NET5:44 X1/X1/N_0:5 6.59049e-06 // $x=13.115 $y=5.102 $x2=0 $y2=0
162 NET5:47 X1/X1/N_0:5 6.77807e-06 // $x=13.197 $y=5.02 $x2=0 $y2=0
163 NET5:23 X1/X1/N_0:8 6.1594e-06 // $x=13.155 $y=2.05 $x2=0 $y2=0
164 NET5:22 X1/X1/N_0:11 8.29257e-06 // $x=13.155 $y=2.21 $x2=14.905 $y2=0.92
165 NET5:23 X1/X1/N_0:11 4.36575e-06 // $x=13.155 $y=2.05 $x2=14.905 $y2=0.92
166 NET5:47 X1/X1/N_0:11 1.92425e-05 // $x=13.197 $y=5.02 $x2=14.905 $y2=0.92
167 NET5:69 X1/X1/N_0:11 1.07375e-05 // $x=13.155 $y=2.21 $x2=14.905 $y2=0.92
168 NET5:44 X1/X1/N_0:16 7.80379e-06 // $x=13.115 $y=5.102 $x2=15.71 $y2=5.21
169 NET5:47 X1/X1/N_0:16 1.20173e-05 // $x=13.197 $y=5.02 $x2=15.71 $y2=5.21
170 NET5:8 X1/X1/N_0:19 5.68381e-06 // $x=9.345 $y=4.965 $x2=0 $y2=0
171 NET5:19 X1/X1/N_0:19 1.72823e-06 // $x=9.345 $y=4.355 $x2=0 $y2=0
172 NET5:102 X1/X1/N_0:19 2.92231e-05 // $x=9.345 $y=4.355 $x2=0 $y2=0
173 x1/x1/MP11:g X1/X1/N_0:19 4.62401e-06 // $x=9.335 $y=3.56 $x2=0 $y2=0
174 NET5:159 X1/X1/N_0:19 9.17905e-06 // $x=9.335 $y=4.385 $x2=0 $y2=0
175 NET5:160 X1/X1/N_0:19 2.52297e-06 // $x=9.335 $y=4.55 $x2=0 $y2=0
176 NET5:8 X1/X1/N_0:22 1.73288e-05 // $x=9.345 $y=4.965 $x2=0 $y2=0
177 NET5:19 X1/X1/N_0:22 8.20155e-07 // $x=9.345 $y=4.355 $x2=0 $y2=0
178 NET5:44 X1/X1/N_0:22 1.05047e-06 // $x=13.115 $y=5.102 $x2=0 $y2=0
179 NET5:102 X1/X1/N_0:22 2.73276e-05 // $x=9.345 $y=4.355 $x2=0 $y2=0
180 NET5:159 X1/X1/N_0:22 5.50739e-06 // $x=9.335 $y=4.385 $x2=0 $y2=0
181 NET5:160 X1/X1/N_0:22 1.13962e-05 // $x=9.335 $y=4.55 $x2=0 $y2=0
182 NET5:5 X1/X1/N_0:23 6.58593e-06 // $x=9.275 $y=5.035 $x2=0 $y2=0
183 NET5:63 X1/X1/N_0:23 6.50064e-07 // $x=8.145 $y=5.035 $x2=0 $y2=0
184 NET5:44 X1/X1/N_0:30 3.09731e-06 // $x=13.115 $y=5.102 $x2=14.59 $y2=5.225
185 NET5:23 X1/X1/N_0:43 4.12059e-06 // $x=13.155 $y=2.05 $x2=14.905 $y2=0.92
186 NET5:8 X1/X1/N_0:48 1.10288e-05 // $x=9.345 $y=4.965 $x2=0 $y2=0
187 NET5:44 X1/X1/N_0:48 6.53774e-06 // $x=13.115 $y=5.102 $x2=0 $y2=0
188 NET5:160 X1/X1/N_0:48 8.83882e-06 // $x=9.335 $y=4.55 $x2=0 $y2=0
189 NET5:102 X1/X1/N_0:52 2.6766e-05 // $x=9.345 $y=4.355 $x2=14.805 $y2=1.69
190 x1/x1/MP11:g X1/X1/N_0:52 1.50998e-05 // $x=9.335 $y=3.56 $x2=14.805 $y2=1.69
191 NET5:159 X1/X1/N_0:52 5.37396e-06 // $x=9.335 $y=4.385 $x2=14.805 $y2=1.69
192 x1/x1/MP11:g X1/X1/N_0:53 5.24054e-07 // $x=9.335 $y=3.56 $x2=0 $y2=0
193 NET5:23 x1/x1/MP6:g 1.88069e-06 // $x=13.155 $y=2.05 $x2=15.665 $y2=5.165
194 NET5:23 X1/X1/N_0:66 1.49207e-06 // $x=13.155 $y=2.05 $x2=0 $y2=0
195 NET5:23 X1/X1/N_0:69 1.45282e-06 // $x=13.155 $y=2.05 $x2=14.832 $y2=-0.849
196 NET5:44 x1/x1/MN13:d 2.55454e-05 // $x=13.115 $y=5.102 $x2=0 $y2=0
197 NET5:23 S1:2 1.6406e-05 // $x=13.155 $y=2.05 $x2=0 $y2=0
198 NET5:52 S1:2 2.21898e-05 // $x=15.52 $y=0.505 $x2=0 $y2=0
199 NET5:22 S1:5 2.10854e-05 // $x=13.155 $y=2.21 $x2=0 $y2=0
200 NET5:23 S1:5 1.5497e-06 // $x=13.155 $y=2.05 $x2=0 $y2=0
201 NET5:69 S1:5 3.26986e-06 // $x=13.155 $y=2.21 $x2=0 $y2=0
202 NET5:23 S1:6 2.88871e-05 // $x=13.155 $y=2.05 $x2=0 $y2=0
203 NET5:59 S1:6 2.60659e-06 // $x=15.662 $y=4.09 $x2=0 $y2=0
204 NET5:47 S1:12 7.95923e-06 // $x=13.197 $y=5.02 $x2=14.905 $y2=0.92
205 NET5:22 S1:18 3.27805e-06 // $x=13.155 $y=2.21 $x2=0 $y2=0
206 NET5:23 S1:18 2.44582e-07 // $x=13.155 $y=2.05 $x2=0 $y2=0
207 NET5:69 S1:18 2.14031e-05 // $x=13.155 $y=2.21 $x2=0 $y2=0
208 NET5:47 S1:22 1.8578e-05 // $x=13.197 $y=5.02 $x2=0 $y2=0
209 NET5:22 S1:23 1.02235e-06 // $x=13.155 $y=2.21 $x2=0 $y2=0
210 NET5:47 S1:23 8.80294e-05 // $x=13.197 $y=5.02 $x2=0 $y2=0
211 NET5:69 S1:23 1.5654e-06 // $x=13.155 $y=2.21 $x2=0 $y2=0
212 NET5:23 S1:26 1.14885e-05 // $x=13.155 $y=2.05 $x2=14.51 $y2=1.62
213 NET5:26 S1:26 8.16184e-06 // $x=13.24 $y=0.55 $x2=14.51 $y2=1.62
214 NET5:49 S1:26 6.45995e-06 // $x=13.217 $y=0.39 $x2=14.51 $y2=1.62
215 NET5:50 S1:26 1.17324e-06 // $x=74.64 $y=-1.272 $x2=14.51 $y2=1.62
216 NET5:52 S1:26 7.50647e-06 // $x=15.52 $y=0.505 $x2=14.51 $y2=1.62
217 NET5:47 S1:32 1.00893e-05 // $x=13.197 $y=5.02 $x2=0 $y2=0
218 NET5:114 S1:32 2.46252e-06 // $x=14.86 $y=4.795 $x2=0 $y2=0
219 x1/x3/MP1:s S1:32 7.86476e-07 // $x=14.68 $y=3.41 $x2=0 $y2=0
220 NET5:49 x1/x2/MN2:g 6.78269e-06 // $x=13.217 $y=0.39 $x2=0 $y2=0
221 NET5:50 x1/x2/MN2:g 1.70693e-06 // $x=74.64 $y=-1.272 $x2=0 $y2=0
222 NET5:50 x1/x2/MN1:g 1.71356e-06 // $x=74.64 $y=-1.272 $x2=0 $y2=0
223 x1/x2/MN1:s x1/x2/MN1:g 3.60504e-05 // $x=15.525 $y=-1.03 $x2=0 $y2=0
224 NET5:114 x1/x3/MN1:g 5.3306e-06 // $x=14.86 $y=4.795 $x2=0 $y2=0
225 NET5:52 x1/x2/MP2:g 6.31805e-06 // $x=15.52 $y=0.505 $x2=14.51 $y2=1.707
226 NET5:34 S1:57 6.43979e-07 // $x=15.665 $y=0.505 $x2=14.86 $y2=0.875
227 NET5:52 S1:57 5.30274e-06 // $x=15.52 $y=0.505 $x2=14.86 $y2=0.875
228 NET5:59 S1:59 1.02181e-06 // $x=15.662 $y=4.09 $x2=15.665 $y2=3.98
229 NET5:59 S1:61 1.02181e-06 // $x=15.662 $y=4.09 $x2=0 $y2=0
230 x1/x3/MP1:s S1:61 3.43407e-06 // $x=14.68 $y=3.41 $x2=0 $y2=0
231 NET5:114 S1:63 1.31424e-05 // $x=14.86 $y=4.795 $x2=15.665 $y2=5.165
232 NET5:30 S1:67 3.33981e-06 // $x=14.86 $y=4.795 $x2=14.832 $y2=1.03
233 NET5:56 S1:67 3.7789e-06 // $x=15.575 $y=4.177 $x2=14.832 $y2=1.03
234 NET5:78 S1:67 1.04663e-06 // $x=14.905 $y=4.84 $x2=14.832 $y2=1.03
235 NET5:79 S1:67 3.65045e-07 // $x=14.905 $y=4.675 $x2=14.832 $y2=1.03
236 NET5:81 S1:67 3.03459e-06 // $x=14.862 $y=4.177 $x2=14.832 $y2=1.03
237 NET5:136 S1:67 5.23049e-06 // $x=14.832 $y=4.64 $x2=14.832 $y2=1.03
238 x1/x3/MP1:s S1:67 1.89747e-05 // $x=14.68 $y=3.41 $x2=14.832 $y2=1.03
239 NET5:49 S1:79 5.38599e-06 // $x=13.217 $y=0.39 $x2=0 $y2=0
240 NET5:52 S1:79 1.39239e-06 // $x=15.52 $y=0.505 $x2=0 $y2=0
241 NET5:50 S2:26 1.17324e-06 // $x=74.64 $y=-1.272 $x2=14.51 $y2=1.62
242 NET5:50 x2/x2/MN2:g 1.70693e-06 // $x=74.64 $y=-1.272 $x2=0 $y2=0
243 NET5:50 x2/x2/MN1:g 1.71356e-06 // $x=74.64 $y=-1.272 $x2=0 $y2=0
244 NET5:50 S3:26 1.1409e-06 // $x=74.64 $y=-1.272 $x2=14.51 $y2=1.62
245 NET5:50 x3/x2/MN2:g 1.70693e-06 // $x=74.64 $y=-1.272 $x2=0 $y2=0
246 NET5:50 x3/x2/MN1:g 1.71356e-06 // $x=74.64 $y=-1.272 $x2=0 $y2=0
247 NET5:50 S4:26 4.88515e-07 // $x=74.64 $y=-1.272 $x2=14.51 $y2=1.62
248 NET5:50 x4/x2/MN2:g 1.78248e-06 // $x=74.64 $y=-1.272 $x2=0 $y2=0
249 NET5:50 x4/x2/MN1:g 1.71356e-06 // $x=74.64 $y=-1.272 $x2=0 $y2=0
250 NET5:50 x5/x2/MN2:g 2.14226e-06 // $x=74.64 $y=-1.272 $x2=0 $y2=0
251 NET5:50 x5/x2/MN1:g 1.71356e-06 // $x=74.64 $y=-1.272 $x2=0 $y2=0
252 NET5:34 X1/NET5:2 4.13257e-06 // $x=15.665 $y=0.505 $x2=0 $y2=0
253 NET5:49 X1/NET5:2 1.60023e-05 // $x=13.217 $y=0.39 $x2=0 $y2=0
254 NET5:52 X1/NET5:2 1.83621e-05 // $x=15.52 $y=0.505 $x2=0 $y2=0
255 x1/x2/MN1:s X1/NET5:2 1.29812e-05 // $x=15.525 $y=-1.03 $x2=0 $y2=0
256 NET5:34 X1/NET5:3 5.19818e-05 // $x=15.665 $y=0.505 $x2=0 $y2=0
257 NET5:50 X1/NET5:3 2.35057e-05 // $x=74.64 $y=-1.272 $x2=0 $y2=0
258 NET5:52 X1/NET5:3 2.50824e-06 // $x=15.52 $y=0.505 $x2=0 $y2=0
259 NET5:84 X1/NET5:3 6.48537e-06 // $x=15.695 $y=0.505 $x2=0 $y2=0
260 x1/x2/MN1:s X1/NET5:3 2.19519e-05 // $x=15.525 $y=-1.03 $x2=0 $y2=0
261 NET5:34 X1/NET5:6 8.73092e-06 // $x=15.665 $y=0.505 $x2=0 $y2=0
262 NET5:59 X1/NET5:6 3.80666e-05 // $x=15.662 $y=4.09 $x2=0 $y2=0
263 NET5:84 X1/NET5:6 8.17043e-06 // $x=15.695 $y=0.505 $x2=0 $y2=0
264 x1/x2/MN1:s X1/NET5:6 8.76089e-06 // $x=15.525 $y=-1.03 $x2=0 $y2=0
265 NET5:49 X1/NET5:8 9.72625e-06 // $x=13.217 $y=0.39 $x2=0 $y2=0
266 NET5:50 X1/NET5:8 6.85581e-06 // $x=74.64 $y=-1.272 $x2=0 $y2=0
267 x1/x2/MN1:s X1/NET5:8 6.22523e-06 // $x=15.525 $y=-1.03 $x2=0 $y2=0
268 NET5:34 X1/NET5:21 9.46762e-06 // $x=15.665 $y=0.505 $x2=0 $y2=0
269 NET5:52 X1/NET5:21 8.77029e-06 // $x=15.52 $y=0.505 $x2=0 $y2=0
270 NET5:59 X1/NET5:21 1.1764e-05 // $x=15.662 $y=4.09 $x2=0 $y2=0
271 x1/x2/MN1:s X1/NET5:21 0.000113379 // $x=15.525 $y=-1.03 $x2=0 $y2=0
272 NET5:34 X1/NET5:28 2.05637e-06 // $x=15.665 $y=0.505 $x2=14.51 $y2=5.14
273 x1/x2/MN1:s X1/NET5:28 3.58001e-07 // $x=15.525 $y=-1.03 $x2=14.51 $y2=5.14
274 NET5:50 X1/NET5:33 1.95247e-06 // $x=74.64 $y=-1.272 $x2=0 $y2=0
275 x1/x2/MN1:s X1/NET5:33 1.50639e-05 // $x=15.525 $y=-1.03 $x2=0 $y2=0
276 NET5:50 x1/x6/MN0:g 1.1147e-06 // $x=74.64 $y=-1.272 $x2=0 $y2=0
277 x1/x2/MN1:s x1/x6/MN0:g 1.10954e-05 // $x=15.525 $y=-1.03 $x2=0 $y2=0
278 x1/x2/MN1:s x1/x6/MP0:g 4.56043e-06 // $x=15.525 $y=-1.03 $x2=0 $y2=0
279 x1/x2/MN1:s X1/NET5:44 3.28864e-07 // $x=15.525 $y=-1.03 $x2=14.905 $y2=0.92
280 NET5:50 x1/x2/MN0:d 2.19888e-06 // $x=74.64 $y=-1.272 $x2=15.545 $y2=5.212
281 x1/x2/MN1:s x1/x2/MN0:d 2.76303e-05 // $x=15.525 $y=-1.03 $x2=15.545 $y2=5.212
282 NET5:114 X1/NET4:1 2.42961e-05 // $x=14.86 $y=4.795 $x2=0 $y2=0
283 NET5:79 X1/NET4:5 1.34602e-05 // $x=14.905 $y=4.675 $x2=0 $y2=0
284 NET5:81 X1/NET4:5 5.91639e-06 // $x=14.862 $y=4.177 $x2=0 $y2=0
285 NET5:30 X1/NET4:6 1.64252e-06 // $x=14.86 $y=4.795 $x2=0 $y2=0
286 NET5:78 X1/NET4:6 6.30408e-06 // $x=14.905 $y=4.84 $x2=0 $y2=0
287 NET5:114 X1/NET4:8 7.76332e-06 // $x=14.86 $y=4.795 $x2=0 $y2=0
288 NET5:112 X1/NET4:22 1.63443e-05 // $x=14.86 $y=6.25 $x2=0 $y2=0
289 NET5:114 X1/NET4:22 1.7586e-05 // $x=14.86 $y=4.795 $x2=0 $y2=0
290 NET5:30 x1/x3/MP1:d 6.23798e-06 // $x=14.86 $y=4.795 $x2=0 $y2=0
291 NET5:56 x1/x3/MP1:d 9.56639e-06 // $x=15.575 $y=4.177 $x2=0 $y2=0
292 NET5:59 x1/x3/MP1:d 5.1738e-06 // $x=15.662 $y=4.09 $x2=0 $y2=0
293 NET5:79 x1/x3/MP1:d 3.35162e-06 // $x=14.905 $y=4.675 $x2=0 $y2=0
294 NET5:81 x1/x3/MP1:d 3.38969e-06 // $x=14.862 $y=4.177 $x2=0 $y2=0
295 NET5:114 x1/x3/MP1:d 4.47144e-06 // $x=14.86 $y=4.795 $x2=0 $y2=0
296 NET5:136 x1/x3/MP1:d 6.61043e-05 // $x=14.832 $y=4.64 $x2=0 $y2=0
297 x1/x3/MP1:s x1/x3/MP1:d 4.91455e-05 // $x=14.68 $y=3.41 $x2=0 $y2=0
298 x1/x2/MN1:s X1/NET2:2 7.48955e-06 // $x=15.525 $y=-1.03 $x2=0 $y2=0
299 NET5:50 X1/NET2:8 8.75521e-06 // $x=74.64 $y=-1.272 $x2=0 $y2=0
300 x1/x2/MN1:s X1/NET2:8 2.1985e-06 // $x=15.525 $y=-1.03 $x2=0 $y2=0
301 NET5:59 X1/NET2:22 3.44542e-06 // $x=15.662 $y=4.09 $x2=0 $y2=0
302 x1/x2/MN1:s X1/NET2:22 7.14734e-06 // $x=15.525 $y=-1.03 $x2=0 $y2=0
303 NET5:50 X1/NET2:34 3.38731e-06 // $x=74.64 $y=-1.272 $x2=0 $y2=0
304 NET5:50 x1/x7/MN0:g 1.1147e-06 // $x=74.64 $y=-1.272 $x2=0 $y2=0
305 NET5:50 x1/x6/MN0:d 2.95659e-06 // $x=74.64 $y=-1.272 $x2=0 $y2=0
306 x1/x2/MN1:s x1/x6/MN0:d 2.93326e-06 // $x=15.525 $y=-1.03 $x2=0 $y2=0
307 NET5:59 x1/x4/MP0:d 3.11223e-06 // $x=15.662 $y=4.09 $x2=0 $y2=0
308 NET5:50 X2/NET5:3 2.35057e-05 // $x=74.64 $y=-1.272 $x2=0 $y2=0
309 NET5:50 X2/NET5:8 6.85581e-06 // $x=74.64 $y=-1.272 $x2=0 $y2=0
310 NET5:50 X2/NET5:33 1.95247e-06 // $x=74.64 $y=-1.272 $x2=0 $y2=0
311 NET5:50 x2/x6/MN0:g 1.1147e-06 // $x=74.64 $y=-1.272 $x2=0 $y2=0
312 NET5:50 x2/x2/MN0:d 2.19888e-06 // $x=74.64 $y=-1.272 $x2=15.545 $y2=5.212
313 NET5:50 X2/NET2:8 8.75521e-06 // $x=74.64 $y=-1.272 $x2=0 $y2=0
314 NET5:50 X2/NET2:34 3.38731e-06 // $x=74.64 $y=-1.272 $x2=0 $y2=0
315 NET5:50 x2/x7/MN0:g 1.1147e-06 // $x=74.64 $y=-1.272 $x2=0 $y2=0
316 NET5:50 x2/x6/MN0:d 2.95659e-06 // $x=74.64 $y=-1.272 $x2=0 $y2=0
317 NET5:50 X3/NET5:3 2.35057e-05 // $x=74.64 $y=-1.272 $x2=0 $y2=0
318 NET5:50 X3/NET5:8 6.85581e-06 // $x=74.64 $y=-1.272 $x2=0 $y2=0
319 NET5:50 X3/NET5:33 1.95247e-06 // $x=74.64 $y=-1.272 $x2=0 $y2=0
320 NET5:50 x3/x6/MN0:g 1.1147e-06 // $x=74.64 $y=-1.272 $x2=0 $y2=0
321 NET5:50 x3/x2/MN0:d 2.19888e-06 // $x=74.64 $y=-1.272 $x2=15.545 $y2=5.212
322 NET5:50 X3/NET2:8 8.75521e-06 // $x=74.64 $y=-1.272 $x2=0 $y2=0
323 NET5:50 X3/NET2:34 3.38731e-06 // $x=74.64 $y=-1.272 $x2=0 $y2=0
324 NET5:50 x3/x7/MN0:g 1.1147e-06 // $x=74.64 $y=-1.272 $x2=0 $y2=0
325 NET5:50 x3/x6/MN0:d 2.95659e-06 // $x=74.64 $y=-1.272 $x2=0 $y2=0
326 NET5:50 X4/NET5:3 2.35057e-05 // $x=74.64 $y=-1.272 $x2=0 $y2=0
327 NET5:50 X4/NET5:8 6.85581e-06 // $x=74.64 $y=-1.272 $x2=0 $y2=0
328 NET5:50 X4/NET5:33 1.95247e-06 // $x=74.64 $y=-1.272 $x2=0 $y2=0
329 NET5:50 x4/x6/MN0:g 1.1147e-06 // $x=74.64 $y=-1.272 $x2=0 $y2=0
330 NET5:50 x4/x2/MN0:d 2.19888e-06 // $x=74.64 $y=-1.272 $x2=15.545 $y2=5.212
331 NET5:50 X4/NET2:8 8.75521e-06 // $x=74.64 $y=-1.272 $x2=0 $y2=0
332 NET5:50 X4/NET2:34 3.38731e-06 // $x=74.64 $y=-1.272 $x2=0 $y2=0
333 NET5:50 x4/x7/MN0:g 1.1147e-06 // $x=74.64 $y=-1.272 $x2=0 $y2=0
334 NET5:50 x4/x6/MN0:d 2.95659e-06 // $x=74.64 $y=-1.272 $x2=0 $y2=0
335 NET5:4 GND:9 8.68184e-05 // $x=7.205 $y=5.035 $x2=14.86 $y2=0.92
336 NET5:5 GND:9 8.69474e-05 // $x=9.275 $y=5.035 $x2=14.86 $y2=0.92
337 NET5:6 GND:9 3.70649e-05 // $x=8.315 $y=5.035 $x2=14.86 $y2=0.92
338 NET5:14 GND:9 2.03182e-06 // $x=7.135 $y=4.355 $x2=14.86 $y2=0.92
339 NET5:19 GND:9 9.41221e-07 // $x=9.345 $y=4.355 $x2=14.86 $y2=0.92
340 NET5:44 GND:9 0.000237719 // $x=13.115 $y=5.102 $x2=14.86 $y2=0.92
341 NET5:63 GND:9 2.34251e-05 // $x=8.145 $y=5.035 $x2=14.86 $y2=0.92
342 NET5:99 GND:9 2.3418e-07 // $x=7.205 $y=4.385 $x2=14.86 $y2=0.92
343 NET5:102 GND:9 2.3418e-07 // $x=9.345 $y=4.355 $x2=14.86 $y2=0.92
344 x1/x1/MN16:g GND:9 5.48865e-06 // $x=7.295 $y=4.96 $x2=14.86 $y2=0.92
345 NET5:160 GND:9 4.84409e-06 // $x=9.335 $y=4.55 $x2=14.86 $y2=0.92
346 NET5:44 GND:33 2.52839e-05 // $x=13.115 $y=5.102 $x2=0 $y2=0
347 NET5:112 GND:33 4.83331e-06 // $x=14.86 $y=6.25 $x2=0 $y2=0
348 NET5:44 GND:34 3.06161e-07 // $x=13.115 $y=5.102 $x2=0 $y2=0
349 NET5:26 GND:39 9.39956e-07 // $x=13.24 $y=0.55 $x2=0 $y2=0
350 NET5:50 GND:39 0.00048644 // $x=74.64 $y=-1.272 $x2=0 $y2=0
351 NET5:51 GND:39 2.14434e-05 // $x=13.3 $y=-1.272 $x2=0 $y2=0
352 NET5:52 GND:39 3.41133e-05 // $x=15.52 $y=0.505 $x2=0 $y2=0
353 NET5:76 GND:39 2.49117e-06 // $x=13.4 $y=0.552 $x2=0 $y2=0
354 x1/x2/MN1:s GND:39 2.38697e-06 // $x=15.525 $y=-1.03 $x2=0 $y2=0
355 NET5:49 GND:40 6.06446e-06 // $x=13.217 $y=0.39 $x2=0 $y2=0
356 NET5:51 GND:40 8.42052e-05 // $x=13.3 $y=-1.272 $x2=0 $y2=0
357 NET5:50 GND:57 0.000393934 // $x=74.64 $y=-1.272 $x2=14.86 $y2=0.875
358 NET5:50 GND:58 0.000223775 // $x=74.64 $y=-1.272 $x2=14.86 $y2=0.875
359 NET5:50 GND:75 0.000525154 // $x=74.64 $y=-1.272 $x2=14.68 $y2=1
360 NET5:50 GND:76 0.000120052 // $x=74.64 $y=-1.272 $x2=15.525 $y2=3.41
361 NET5:50 GND:93 0.000392857 // $x=74.64 $y=-1.272 $x2=0 $y2=0
362 NET5:50 GND:94 0.000223177 // $x=74.64 $y=-1.272 $x2=0 $y2=0
363 NET5:50 GND:111 0.000524752 // $x=74.64 $y=-1.272 $x2=0 $y2=0
364 NET5:50 GND:112 0.000119736 // $x=74.64 $y=-1.272 $x2=0 $y2=0
365 NET5:50 GND:129 0.000394467 // $x=74.64 $y=-1.272 $x2=0 $y2=0
366 NET5:50 GND:130 0.000224071 // $x=74.64 $y=-1.272 $x2=0 $y2=0
367 NET5:50 GND:147 0.000525174 // $x=74.64 $y=-1.272 $x2=0 $y2=0
368 NET5:50 GND:148 0.000120209 // $x=74.64 $y=-1.272 $x2=0 $y2=0
369 NET5:50 GND:165 0.000393934 // $x=74.64 $y=-1.272 $x2=0 $y2=0
370 NET5:50 GND:166 0.000223775 // $x=74.64 $y=-1.272 $x2=0 $y2=0
371 NET5:50 GND:183 0.000120052 // $x=74.64 $y=-1.272 $x2=0 $y2=0
372 NET5:11 GND:187 1.25796e-05 // $x=74.71 $y=-0.16 $x2=0 $y2=0
373 NET5:50 GND:187 0.000436655 // $x=74.64 $y=-1.272 $x2=0 $y2=0
374 NET5:90 GND:187 3.86432e-06 // $x=74.78 $y=-0.334 $x2=0 $y2=0
375 x5/x7/MN0:d GND:187 1.97082e-06 // $x=74.57 $y=-1.03 $x2=0 $y2=0
376 NET5:3 GND:267 1.92478e-06 // $x=7.995 $y=5.035 $x2=0 $y2=0
377 NET5:4 GND:267 9.85712e-07 // $x=7.205 $y=5.035 $x2=0 $y2=0
378 NET5:5 GND:267 9.62391e-07 // $x=9.275 $y=5.035 $x2=0 $y2=0
379 NET5:6 GND:267 1.2538e-06 // $x=8.315 $y=5.035 $x2=0 $y2=0
380 x1/x1/MN16:g GND:267 7.25096e-06 // $x=7.295 $y=4.96 $x2=0 $y2=0
381 NET5:5 GND:304 9.62391e-07 // $x=9.275 $y=5.035 $x2=0 $y2=0
382 NET5:160 GND:304 5.4637e-06 // $x=9.335 $y=4.55 $x2=0 $y2=0
383 x1/x2/MN1:s GND:315 1.08294e-05 // $x=15.525 $y=-1.03 $x2=0 $y2=0
384 NET5:112 GND:319 1.26056e-05 // $x=14.86 $y=6.25 $x2=0 $y2=0
385 x1/x2/MN1:s GND:331 1.33082e-06 // $x=15.525 $y=-1.03 $x2=0 $y2=0
386 NET5:112 GND:333 1.28014e-06 // $x=14.86 $y=6.25 $x2=0 $y2=0
387 NET5:11 GND:896 3.61816e-06 // $x=74.71 $y=-0.16 $x2=0 $y2=0
388 x5/x7/MN0:d GND:896 1.18303e-05 // $x=74.57 $y=-1.03 $x2=0 $y2=0
389 NET5:4 x1/x1/MN17:s 8.32165e-06 // $x=7.205 $y=5.035 $x2=0 $y2=0
390 NET5:63 x1/x1/MN17:s 5.32236e-07 // $x=8.145 $y=5.035 $x2=0 $y2=0
391 x1/x1/MN16:g x1/x1/MN17:s 6.68678e-06 // $x=7.295 $y=4.96 $x2=0 $y2=0
392 NET5:5 x1/x1/MN12:s 9.90653e-06 // $x=9.275 $y=5.035 $x2=0 $y2=0
393 NET5:6 x1/x1/MN12:s 8.87554e-07 // $x=8.315 $y=5.035 $x2=0 $y2=0
394 NET5:44 x1/x1/MN12:s 4.01976e-06 // $x=13.115 $y=5.102 $x2=0 $y2=0
395 NET5:63 x1/x1/MN12:s 7.48619e-07 // $x=8.145 $y=5.035 $x2=0 $y2=0
396 NET5:160 x1/x1/MN12:s 1.16002e-05 // $x=9.335 $y=4.55 $x2=0 $y2=0
397 NET5:44 x1/x1/MN14:s 1.44444e-05 // $x=13.115 $y=5.102 $x2=0 $y2=0
398 NET5:23 x1/x1/MN5:s 6.34881e-06 // $x=13.155 $y=2.05 $x2=0 $y2=0
399 NET5:26 x1/x1/MN5:s 6.13769e-06 // $x=13.24 $y=0.55 $x2=0 $y2=0
400 NET5:49 x1/x2/MN2:s 8.49736e-06 // $x=13.217 $y=0.39 $x2=0 $y2=0
401 NET5:50 x1/x2/MN2:s 5.61309e-06 // $x=74.64 $y=-1.272 $x2=0 $y2=0
402 NET5:52 x1/x2/MN2:s 9.8841e-07 // $x=15.52 $y=0.505 $x2=0 $y2=0
403 NET5:112 x1/x3/MN2:s 1.87278e-06 // $x=14.86 $y=6.25 $x2=0 $y2=0
404 NET5:50 x1/x6/MN0:s 7.70383e-06 // $x=74.64 $y=-1.272 $x2=0 $y2=0
405 x1/x2/MN1:s x1/x6/MN0:s 8.67204e-06 // $x=15.525 $y=-1.03 $x2=0 $y2=0
406 NET5:50 x1/x7/MN0:s 8.91245e-06 // $x=74.64 $y=-1.272 $x2=0 $y2=0
407 NET5:50 x2/x2/MN2:s 5.97059e-06 // $x=74.64 $y=-1.272 $x2=0 $y2=0
408 NET5:50 x2/x6/MN0:s 7.70383e-06 // $x=74.64 $y=-1.272 $x2=0 $y2=0
409 NET5:50 x2/x7/MN0:s 8.91245e-06 // $x=74.64 $y=-1.272 $x2=0 $y2=0
410 NET5:50 x3/x2/MN2:s 5.79475e-06 // $x=74.64 $y=-1.272 $x2=0 $y2=0
411 NET5:50 x3/x6/MN0:s 7.70383e-06 // $x=74.64 $y=-1.272 $x2=0 $y2=0
412 NET5:50 x3/x7/MN0:s 8.91245e-06 // $x=74.64 $y=-1.272 $x2=0 $y2=0
413 NET5:50 x4/x2/MN2:s 5.33716e-06 // $x=74.64 $y=-1.272 $x2=0 $y2=0
414 NET5:50 x4/x6/MN0:s 7.70383e-06 // $x=74.64 $y=-1.272 $x2=0 $y2=0
415 NET5:50 x4/x7/MN0:s 8.91245e-06 // $x=74.64 $y=-1.272 $x2=0 $y2=0
416 NET5:50 x5/x2/MN2:s 5.33294e-06 // $x=74.64 $y=-1.272 $x2=0 $y2=0