*SPEF "ieee 1481-1999"
*DESIGN "user_project_wrapper"
*DATE "11:11:11 Fri 11 11, 1111"
*VENDOR "OpenRCX"
*PROGRAM "Parallel Extraction"
*VERSION "1.0"
*DESIGN_FLOW "NAME_SCOPE LOCAL" "PIN_CAP NONE"
*DIVIDER /
*DELIMITER :
*BUS_DELIMITER []
*T_UNIT 1 NS
*C_UNIT 1 PF
*R_UNIT 1 OHM
*L_UNIT 1 HENRY

*NAME_MAP
*1 analog_io[0]
*2 analog_io[10]
*3 analog_io[11]
*4 analog_io[12]
*5 analog_io[13]
*6 analog_io[14]
*7 analog_io[15]
*8 analog_io[16]
*9 analog_io[17]
*10 analog_io[18]
*11 analog_io[19]
*12 analog_io[1]
*13 analog_io[20]
*14 analog_io[21]
*15 analog_io[22]
*16 analog_io[23]
*17 analog_io[24]
*18 analog_io[25]
*19 analog_io[26]
*20 analog_io[27]
*21 analog_io[28]
*22 analog_io[2]
*23 analog_io[3]
*24 analog_io[4]
*25 analog_io[5]
*26 analog_io[6]
*27 analog_io[7]
*28 analog_io[8]
*29 analog_io[9]
*30 io_in[0]
*31 io_in[10]
*32 io_in[11]
*33 io_in[12]
*34 io_in[13]
*35 io_in[14]
*36 io_in[15]
*37 io_in[16]
*38 io_in[17]
*39 io_in[18]
*40 io_in[19]
*41 io_in[1]
*42 io_in[20]
*43 io_in[21]
*44 io_in[22]
*45 io_in[23]
*46 io_in[24]
*47 io_in[25]
*48 io_in[26]
*49 io_in[27]
*50 io_in[28]
*51 io_in[29]
*52 io_in[2]
*53 io_in[30]
*54 io_in[31]
*55 io_in[32]
*56 io_in[33]
*57 io_in[34]
*58 io_in[35]
*59 io_in[36]
*60 io_in[37]
*61 io_in[3]
*62 io_in[4]
*63 io_in[5]
*64 io_in[6]
*65 io_in[7]
*66 io_in[8]
*67 io_in[9]
*68 io_oeb[0]
*69 io_oeb[10]
*70 io_oeb[11]
*71 io_oeb[12]
*72 io_oeb[13]
*73 io_oeb[14]
*74 io_oeb[15]
*75 io_oeb[16]
*76 io_oeb[17]
*77 io_oeb[18]
*78 io_oeb[19]
*79 io_oeb[1]
*80 io_oeb[20]
*81 io_oeb[21]
*82 io_oeb[22]
*83 io_oeb[23]
*84 io_oeb[24]
*85 io_oeb[25]
*86 io_oeb[26]
*87 io_oeb[27]
*88 io_oeb[28]
*89 io_oeb[29]
*90 io_oeb[2]
*91 io_oeb[30]
*92 io_oeb[31]
*93 io_oeb[32]
*94 io_oeb[33]
*95 io_oeb[34]
*96 io_oeb[35]
*97 io_oeb[36]
*98 io_oeb[37]
*99 io_oeb[3]
*100 io_oeb[4]
*101 io_oeb[5]
*102 io_oeb[6]
*103 io_oeb[7]
*104 io_oeb[8]
*105 io_oeb[9]
*106 io_out[0]
*107 io_out[10]
*108 io_out[11]
*109 io_out[12]
*110 io_out[13]
*111 io_out[14]
*112 io_out[15]
*113 io_out[16]
*114 io_out[17]
*115 io_out[18]
*116 io_out[19]
*117 io_out[1]
*118 io_out[20]
*119 io_out[21]
*120 io_out[22]
*121 io_out[23]
*122 io_out[24]
*123 io_out[25]
*124 io_out[26]
*125 io_out[27]
*126 io_out[28]
*127 io_out[29]
*128 io_out[2]
*129 io_out[30]
*130 io_out[31]
*131 io_out[32]
*132 io_out[33]
*133 io_out[34]
*134 io_out[35]
*135 io_out[36]
*136 io_out[37]
*137 io_out[3]
*138 io_out[4]
*139 io_out[5]
*140 io_out[6]
*141 io_out[7]
*142 io_out[8]
*143 io_out[9]
*146 wb_clk_i
*147 wb_rst_i
*148 wbs_ack_o
*149 wbs_adr_i[0]
*150 wbs_adr_i[10]
*151 wbs_adr_i[11]
*152 wbs_adr_i[12]
*153 wbs_adr_i[13]
*154 wbs_adr_i[14]
*155 wbs_adr_i[15]
*156 wbs_adr_i[16]
*157 wbs_adr_i[17]
*158 wbs_adr_i[18]
*159 wbs_adr_i[19]
*160 wbs_adr_i[1]
*161 wbs_adr_i[20]
*162 wbs_adr_i[21]
*163 wbs_adr_i[22]
*164 wbs_adr_i[23]
*165 wbs_adr_i[24]
*166 wbs_adr_i[25]
*167 wbs_adr_i[26]
*168 wbs_adr_i[27]
*169 wbs_adr_i[28]
*170 wbs_adr_i[29]
*171 wbs_adr_i[2]
*172 wbs_adr_i[30]
*173 wbs_adr_i[31]
*174 wbs_adr_i[3]
*175 wbs_adr_i[4]
*176 wbs_adr_i[5]
*177 wbs_adr_i[6]
*178 wbs_adr_i[7]
*179 wbs_adr_i[8]
*180 wbs_adr_i[9]
*181 wbs_cyc_i
*182 wbs_dat_i[0]
*183 wbs_dat_i[10]
*184 wbs_dat_i[11]
*185 wbs_dat_i[12]
*186 wbs_dat_i[13]
*187 wbs_dat_i[14]
*188 wbs_dat_i[15]
*189 wbs_dat_i[16]
*190 wbs_dat_i[17]
*191 wbs_dat_i[18]
*192 wbs_dat_i[19]
*193 wbs_dat_i[1]
*194 wbs_dat_i[20]
*195 wbs_dat_i[21]
*196 wbs_dat_i[22]
*197 wbs_dat_i[23]
*198 wbs_dat_i[24]
*199 wbs_dat_i[25]
*200 wbs_dat_i[26]
*201 wbs_dat_i[27]
*202 wbs_dat_i[28]
*203 wbs_dat_i[29]
*204 wbs_dat_i[2]
*205 wbs_dat_i[30]
*206 wbs_dat_i[31]
*207 wbs_dat_i[3]
*208 wbs_dat_i[4]
*209 wbs_dat_i[5]
*210 wbs_dat_i[6]
*211 wbs_dat_i[7]
*212 wbs_dat_i[8]
*213 wbs_dat_i[9]
*214 wbs_dat_o[0]
*215 wbs_dat_o[10]
*216 wbs_dat_o[11]
*217 wbs_dat_o[12]
*218 wbs_dat_o[13]
*219 wbs_dat_o[14]
*220 wbs_dat_o[15]
*221 wbs_dat_o[16]
*222 wbs_dat_o[17]
*223 wbs_dat_o[18]
*224 wbs_dat_o[19]
*225 wbs_dat_o[1]
*226 wbs_dat_o[20]
*227 wbs_dat_o[21]
*228 wbs_dat_o[22]
*229 wbs_dat_o[23]
*230 wbs_dat_o[24]
*231 wbs_dat_o[25]
*232 wbs_dat_o[26]
*233 wbs_dat_o[27]
*234 wbs_dat_o[28]
*235 wbs_dat_o[29]
*236 wbs_dat_o[2]
*237 wbs_dat_o[30]
*238 wbs_dat_o[31]
*239 wbs_dat_o[3]
*240 wbs_dat_o[4]
*241 wbs_dat_o[5]
*242 wbs_dat_o[6]
*243 wbs_dat_o[7]
*244 wbs_dat_o[8]
*245 wbs_dat_o[9]
*246 wbs_sel_i[0]
*247 wbs_sel_i[1]
*248 wbs_sel_i[2]
*249 wbs_sel_i[3]
*250 wbs_stb_i
*251 wbs_we_i
*252 x1\[0\]
*253 x1\[10\]
*254 x1\[11\]
*255 x1\[12\]
*256 x1\[13\]
*257 x1\[14\]
*258 x1\[15\]
*259 x1\[1\]
*260 x1\[2\]
*261 x1\[3\]
*262 x1\[4\]
*263 x1\[5\]
*264 x1\[6\]
*265 x1\[7\]
*266 x1\[8\]
*267 x1\[9\]
*268 x2\[0\]
*269 x2\[10\]
*270 x2\[11\]
*271 x2\[12\]
*272 x2\[13\]
*273 x2\[14\]
*274 x2\[15\]
*275 x2\[1\]
*276 x2\[2\]
*277 x2\[3\]
*278 x2\[4\]
*279 x2\[5\]
*280 x2\[6\]
*281 x2\[7\]
*282 x2\[8\]
*283 x2\[9\]
*284 x3\[0\]
*285 x3\[10\]
*286 x3\[11\]
*287 x3\[12\]
*288 x3\[13\]
*289 x3\[14\]
*290 x3\[15\]
*291 x3\[1\]
*292 x3\[2\]
*293 x3\[3\]
*294 x3\[4\]
*295 x3\[5\]
*296 x3\[6\]
*297 x3\[7\]
*298 x3\[8\]
*299 x3\[9\]
*300 x4\[0\]
*301 x4\[10\]
*302 x4\[11\]
*303 x4\[12\]
*304 x4\[13\]
*305 x4\[14\]
*306 x4\[15\]
*307 x4\[1\]
*308 x4\[2\]
*309 x4\[3\]
*310 x4\[4\]
*311 x4\[5\]
*312 x4\[6\]
*313 x4\[7\]
*314 x4\[8\]
*315 x4\[9\]
*316 x5\[0\]
*317 x5\[10\]
*318 x5\[11\]
*319 x5\[12\]
*320 x5\[13\]
*321 x5\[14\]
*322 x5\[15\]
*323 x5\[1\]
*324 x5\[2\]
*325 x5\[3\]
*326 x5\[4\]
*327 x5\[5\]
*328 x5\[6\]
*329 x5\[7\]
*330 x5\[8\]
*331 x5\[9\]
*332 mprj1
*333 mprj2
*334 mprj3
*335 mprj4
*336 mprj5
*337 ro1
*338 ro10
*339 ro11
*340 ro12
*341 ro13
*342 ro14
*343 ro15
*344 ro16
*345 ro2
*346 ro3
*347 ro4
*348 ro5
*349 ro6
*350 ro7
*351 ro8
*352 ro9

*PORTS
analog_io[0] I
analog_io[10] I
analog_io[11] I
analog_io[12] I
analog_io[13] I
analog_io[14] I
analog_io[15] I
analog_io[16] I
analog_io[17] I
analog_io[18] I
analog_io[19] I
analog_io[1] I
analog_io[20] I
analog_io[21] I
analog_io[22] I
analog_io[23] I
analog_io[24] I
analog_io[25] I
analog_io[26] I
analog_io[27] I
analog_io[28] I
analog_io[2] I
analog_io[3] I
analog_io[4] I
analog_io[5] I
analog_io[6] I
analog_io[7] I
analog_io[8] I
analog_io[9] I
io_in[0] I
io_in[10] I
io_in[11] I
io_in[12] I
io_in[13] I
io_in[14] I
io_in[15] I
io_in[16] I
io_in[17] I
io_in[18] I
io_in[19] I
io_in[1] I
io_in[20] I
io_in[21] I
io_in[22] I
io_in[23] I
io_in[24] I
io_in[25] I
io_in[26] I
io_in[27] I
io_in[28] I
io_in[29] I
io_in[2] I
io_in[30] I
io_in[31] I
io_in[32] I
io_in[33] I
io_in[34] I
io_in[35] I
io_in[36] I
io_in[37] I
io_in[3] I
io_in[4] I
io_in[5] I
io_in[6] I
io_in[7] I
io_in[8] I
io_in[9] I
io_oeb[0] O
io_oeb[10] O
io_oeb[11] O
io_oeb[12] O
io_oeb[13] O
io_oeb[14] O
io_oeb[15] O
io_oeb[16] O
io_oeb[17] O
io_oeb[18] O
io_oeb[19] O
io_oeb[1] O
io_oeb[20] O
io_oeb[21] O
io_oeb[22] O
io_oeb[23] O
io_oeb[24] O
io_oeb[25] O
io_oeb[26] O
io_oeb[27] O
io_oeb[28] O
io_oeb[29] O
io_oeb[2] O
io_oeb[30] O
io_oeb[31] O
io_oeb[32] O
io_oeb[33] O
io_oeb[34] O
io_oeb[35] O
io_oeb[36] O
io_oeb[37] O
io_oeb[3] O
io_oeb[4] O
io_oeb[5] O
io_oeb[6] O
io_oeb[7] O
io_oeb[8] O
io_oeb[9] O
io_out[0] O
io_out[10] O
io_out[11] O
io_out[12] O
io_out[13] O
io_out[14] O
io_out[15] O
io_out[16] O
io_out[17] O
io_out[18] O
io_out[19] O
io_out[1] O
io_out[20] O
io_out[21] O
io_out[22] O
io_out[23] O
io_out[24] O
io_out[25] O
io_out[26] O
io_out[27] O
io_out[28] O
io_out[29] O
io_out[2] O
io_out[30] O
io_out[31] O
io_out[32] O
io_out[33] O
io_out[34] O
io_out[35] O
io_out[36] O
io_out[37] O
io_out[3] O
io_out[4] O
io_out[5] O
io_out[6] O
io_out[7] O
io_out[8] O
io_out[9] O
wb_clk_i I
wb_rst_i I
wbs_ack_o O
wbs_adr_i[0] I
wbs_adr_i[10] I
wbs_adr_i[11] I
wbs_adr_i[12] I
wbs_adr_i[13] I
wbs_adr_i[14] I
wbs_adr_i[15] I
wbs_adr_i[16] I
wbs_adr_i[17] I
wbs_adr_i[18] I
wbs_adr_i[19] I
wbs_adr_i[1] I
wbs_adr_i[20] I
wbs_adr_i[21] I
wbs_adr_i[22] I
wbs_adr_i[23] I
wbs_adr_i[24] I
wbs_adr_i[25] I
wbs_adr_i[26] I
wbs_adr_i[27] I
wbs_adr_i[28] I
wbs_adr_i[29] I
wbs_adr_i[2] I
wbs_adr_i[30] I
wbs_adr_i[31] I
wbs_adr_i[3] I
wbs_adr_i[4] I
wbs_adr_i[5] I
wbs_adr_i[6] I
wbs_adr_i[7] I
wbs_adr_i[8] I
wbs_adr_i[9] I
wbs_cyc_i I
wbs_dat_i[0] I
wbs_dat_i[10] I
wbs_dat_i[11] I
wbs_dat_i[12] I
wbs_dat_i[13] I
wbs_dat_i[14] I
wbs_dat_i[15] I
wbs_dat_i[16] I
wbs_dat_i[17] I
wbs_dat_i[18] I
wbs_dat_i[19] I
wbs_dat_i[1] I
wbs_dat_i[20] I
wbs_dat_i[21] I
wbs_dat_i[22] I
wbs_dat_i[23] I
wbs_dat_i[24] I
wbs_dat_i[25] I
wbs_dat_i[26] I
wbs_dat_i[27] I
wbs_dat_i[28] I
wbs_dat_i[29] I
wbs_dat_i[2] I
wbs_dat_i[30] I
wbs_dat_i[31] I
wbs_dat_i[3] I
wbs_dat_i[4] I
wbs_dat_i[5] I
wbs_dat_i[6] I
wbs_dat_i[7] I
wbs_dat_i[8] I
wbs_dat_i[9] I
wbs_dat_o[0] O
wbs_dat_o[10] O
wbs_dat_o[11] O
wbs_dat_o[12] O
wbs_dat_o[13] O
wbs_dat_o[14] O
wbs_dat_o[15] O
wbs_dat_o[16] O
wbs_dat_o[17] O
wbs_dat_o[18] O
wbs_dat_o[19] O
wbs_dat_o[1] O
wbs_dat_o[20] O
wbs_dat_o[21] O
wbs_dat_o[22] O
wbs_dat_o[23] O
wbs_dat_o[24] O
wbs_dat_o[25] O
wbs_dat_o[26] O
wbs_dat_o[27] O
wbs_dat_o[28] O
wbs_dat_o[29] O
wbs_dat_o[2] O
wbs_dat_o[30] O
wbs_dat_o[31] O
wbs_dat_o[3] O
wbs_dat_o[4] O
wbs_dat_o[5] O
wbs_dat_o[6] O
wbs_dat_o[7] O
wbs_dat_o[8] O
wbs_dat_o[9] O
wbs_sel_i[0] I
wbs_sel_i[1] I
wbs_sel_i[2] I
wbs_sel_i[3] I
wbs_stb_i I
wbs_we_i I

*D_NET *30 0.36493
*CONN
*P io_in[0] I
*I *337:s1 I *D sky130_osu_ring_oscillator_mpr2aa_8_b0r1
*I *345:s1 I *D sky130_osu_ring_oscillator_mpr2at_8_b0r1
*I *346:s1 I *D sky130_osu_ring_oscillator_mpr2ca_8_b0r1
*I *347:s1 I *D sky130_osu_ring_oscillator_mpr2ct_8_b0r1
*I *348:s1 I *D sky130_osu_ring_oscillator_mpr2ea_8_b0r1
*I *349:s1 I *D sky130_osu_ring_oscillator_mpr2et_8_b0r1
*I *350:s1 I *D sky130_osu_ring_oscillator_mpr2xa_8_b0r1
*I *351:s1 I *D sky130_osu_ring_oscillator_mpr2ya_8_b0r1
*I *352:s1 I *D sky130_osu_ring_oscillator_mpr2aa_8_b0r2
*I *338:s1 I *D sky130_osu_ring_oscillator_mpr2at_8_b0r2
*I *339:s1 I *D sky130_osu_ring_oscillator_mpr2ca_8_b0r2
*I *340:s1 I *D sky130_osu_ring_oscillator_mpr2ct_8_b0r2
*I *341:s1 I *D sky130_osu_ring_oscillator_mpr2ea_8_b0r2
*I *342:s1 I *D sky130_osu_ring_oscillator_mpr2et_8_b0r2
*I *343:s1 I *D sky130_osu_ring_oscillator_mpr2xa_8_b0r2
*I *344:s1 I *D sky130_osu_ring_oscillator_mpr2ya_8_b0r2
*CAP
1 io_in[0] 0.0690389
2 *337:s1 0.00453189
3 *345:s1 0.000166957
4 *346:s1 0.000208492
5 *347:s1 0.000236756
6 *348:s1 0.00023755
7 *349:s1 0.000109731
8 *350:s1 0.000238105
9 *351:s1 8.31984e-05
10 *352:s1 0.000236077
11 *338:s1 0.000252883
12 *339:s1 0.000151289
13 *340:s1 0.000131707
14 *341:s1 0.000165165
15 *342:s1 0.000157136
16 *343:s1 8.10416e-05
17 *344:s1 0.000117322
18 *30:277 0.00944155
19 *30:253 0.00953966
20 *30:235 0.00980416
21 *30:211 0.00942982
22 *30:197 0.00951554
23 *30:173 0.00966646
24 *30:159 0.00908025
25 *30:139 0.00902768
26 *30:122 0.00905627
27 *30:108 0.00921723
28 *30:93 0.00921466
29 *30:73 0.00950931
30 *30:53 0.00952841
31 *30:37 0.00954653
32 *30:13 0.00517968
33 *30:9 0.0415319
34 *30:7 0.0411179
35 *30:5 0.0690389
36 *337:s1 *252:14 0
37 *348:s1 *262:8 0
38 *350:s1 *264:16 0
39 *352:s1 *266:8 0
40 *30:9 *258:12 0.000339718
41 *30:235 *259:20 0
42 *30:253 *259:20 0
43 *30:277 *252:14 0
44 *30:277 *259:20 0
*RES
1 io_in[0] *30:5 225.88 
2 *30:5 *30:7 3.41 
3 *30:7 *30:9 144.058 
4 *30:9 *30:13 1.33167 
5 *30:13 *344:s1 8.36732 
6 *30:13 *30:37 19.5451 
7 *30:37 *343:s1 4.95911 
8 *30:37 *30:53 19.5608 
9 *30:53 *342:s1 8.45278 
10 *30:53 *30:73 16.2338 
11 *30:73 *341:s1 9.10839 
12 *30:73 *30:93 16.1586 
13 *30:93 *340:s1 7.2477 
14 *30:93 *30:108 15.3878 
15 *30:108 *339:s1 8.62242 
16 *30:108 *30:122 16.027 
17 *30:122 *338:s1 13.318 
18 *30:122 *30:139 14.429 
19 *30:139 *352:s1 11.0504 
20 *30:139 *30:159 16.2401 
21 *30:159 *351:s1 7.63518 
22 *30:159 *30:173 15.1747 
23 *30:173 *350:s1 11.0548 
24 *30:173 *30:197 17.4433 
25 *30:197 *349:s1 7.64474 
26 *30:197 *30:211 14.7486 
27 *30:211 *348:s1 11.0146 
28 *30:211 *30:235 16.8041 
29 *30:235 *347:s1 10.1811 
30 *30:235 *30:253 15.9205 
31 *30:253 *346:s1 10.162 
32 *30:253 *30:277 16.5033 
33 *30:277 *345:s1 9.10839 
34 *30:277 *337:s1 22.084 
*END

*D_NET *41 0.387573
*CONN
*P io_in[1] I
*I *338:s2 I *D sky130_osu_ring_oscillator_mpr2at_8_b0r2
*I *337:s2 I *D sky130_osu_ring_oscillator_mpr2aa_8_b0r1
*I *345:s2 I *D sky130_osu_ring_oscillator_mpr2at_8_b0r1
*I *346:s2 I *D sky130_osu_ring_oscillator_mpr2ca_8_b0r1
*I *347:s2 I *D sky130_osu_ring_oscillator_mpr2ct_8_b0r1
*I *348:s2 I *D sky130_osu_ring_oscillator_mpr2ea_8_b0r1
*I *349:s2 I *D sky130_osu_ring_oscillator_mpr2et_8_b0r1
*I *350:s2 I *D sky130_osu_ring_oscillator_mpr2xa_8_b0r1
*I *351:s2 I *D sky130_osu_ring_oscillator_mpr2ya_8_b0r1
*I *352:s2 I *D sky130_osu_ring_oscillator_mpr2aa_8_b0r2
*I *339:s2 I *D sky130_osu_ring_oscillator_mpr2ca_8_b0r2
*I *340:s2 I *D sky130_osu_ring_oscillator_mpr2ct_8_b0r2
*I *341:s2 I *D sky130_osu_ring_oscillator_mpr2ea_8_b0r2
*I *342:s2 I *D sky130_osu_ring_oscillator_mpr2et_8_b0r2
*I *343:s2 I *D sky130_osu_ring_oscillator_mpr2xa_8_b0r2
*I *344:s2 I *D sky130_osu_ring_oscillator_mpr2ya_8_b0r2
*CAP
1 io_in[1] 0.0684204
2 *338:s2 7.83606e-05
3 *337:s2 0.00609185
4 *345:s2 0.0120787
5 *346:s2 0.000484379
6 *347:s2 0.00029996
7 *348:s2 0.000122922
8 *349:s2 0.000133159
9 *350:s2 0.000152001
10 *351:s2 8.8683e-05
11 *352:s2 0.000155685
12 *339:s2 0.00038386
13 *340:s2 0.000300702
14 *341:s2 0.00021143
15 *342:s2 0.00105605
16 *343:s2 0.000178427
17 *344:s2 0.000150197
18 *41:248 0.0118879
19 *41:237 0.0121835
20 *41:219 0.012177
21 *41:194 0.0110183
22 *41:176 0.0103814
23 *41:161 0.0103726
24 *41:141 0.0111901
25 *41:131 0.0118313
26 *41:116 0.011955
27 *41:105 0.0117683
28 *41:83 0.0116784
29 *41:49 0.0121583
30 *41:31 0.0108406
31 *41:13 0.00551308
32 *41:9 0.0360017
33 *41:7 0.0356983
34 *41:5 0.0684204
35 *337:s2 *252:14 0
36 *345:s2 *275:16 0.000546062
37 *345:s2 *275:18 0
38 *346:s2 *276:12 0
39 *348:s2 *278:12 0
40 *41:31 *273:8 0.000204702
41 *41:105 *270:12 0.00047976
42 *41:131 *283:10 0.000278408
43 *41:237 *275:18 0
44 *41:237 *277:12 0.000601325
45 *41:248 *275:18 0
*RES
1 io_in[1] *41:5 223.718 
2 *41:5 *41:7 3.41 
3 *41:7 *41:9 112.95 
4 *41:9 *41:13 0.905533 
5 *41:13 *344:s2 8.6001 
6 *41:13 *41:31 16.9106 
7 *41:31 *343:s2 8.52485 
8 *41:31 *41:49 17.6031 
9 *41:49 *342:s2 24.811 
10 *41:49 *41:83 17.9628 
11 *41:83 *341:s2 11.8564 
12 *41:83 *41:105 19.6328 
13 *41:105 *340:s2 7.4545 
14 *41:105 *41:116 15.7074 
15 *41:116 *339:s2 7.62997 
16 *41:116 *41:131 19.849 
17 *41:131 *41:141 18.4798 
18 *41:141 *352:s2 8.71171 
19 *41:141 *41:161 16.2651 
20 *41:161 *351:s2 7.06127 
21 *41:161 *41:176 16.4845 
22 *41:176 *350:s2 8.27038 
23 *41:176 *41:194 16.591 
24 *41:194 *349:s2 12.7519 
25 *41:194 *41:219 18.6928 
26 *41:219 *348:s2 10.16 
27 *41:219 *41:237 20.8454 
28 *41:237 *347:s2 7.45293 
29 *41:237 *41:248 15.1747 
30 *41:248 *346:s2 9.19959 
31 *41:248 *345:s2 23.4744 
32 *345:s2 *337:s2 49.4398 
33 *41:131 *338:s2 9.38321 
*END

*D_NET *52 0.431094
*CONN
*P io_in[2] I
*I *337:s3 I *D sky130_osu_ring_oscillator_mpr2aa_8_b0r1
*I *345:s3 I *D sky130_osu_ring_oscillator_mpr2at_8_b0r1
*I *346:s3 I *D sky130_osu_ring_oscillator_mpr2ca_8_b0r1
*I *347:s3 I *D sky130_osu_ring_oscillator_mpr2ct_8_b0r1
*I *348:s3 I *D sky130_osu_ring_oscillator_mpr2ea_8_b0r1
*I *349:s3 I *D sky130_osu_ring_oscillator_mpr2et_8_b0r1
*I *350:s3 I *D sky130_osu_ring_oscillator_mpr2xa_8_b0r1
*I *351:s3 I *D sky130_osu_ring_oscillator_mpr2ya_8_b0r1
*I *352:s3 I *D sky130_osu_ring_oscillator_mpr2aa_8_b0r2
*I *338:s3 I *D sky130_osu_ring_oscillator_mpr2at_8_b0r2
*I *339:s3 I *D sky130_osu_ring_oscillator_mpr2ca_8_b0r2
*I *340:s3 I *D sky130_osu_ring_oscillator_mpr2ct_8_b0r2
*I *341:s3 I *D sky130_osu_ring_oscillator_mpr2ea_8_b0r2
*I *342:s3 I *D sky130_osu_ring_oscillator_mpr2et_8_b0r2
*I *343:s3 I *D sky130_osu_ring_oscillator_mpr2xa_8_b0r2
*I *344:s3 I *D sky130_osu_ring_oscillator_mpr2ya_8_b0r2
*CAP
1 io_in[2] 0.000768925
2 *337:s3 0.00526956
3 *345:s3 0.00036053
4 *346:s3 0.000188493
5 *347:s3 0.000192005
6 *348:s3 0.000217891
7 *349:s3 0.000114744
8 *350:s3 0.00019584
9 *351:s3 3.86087e-05
10 *352:s3 0.000186737
11 *338:s3 6.37029e-05
12 *339:s3 6.22936e-05
13 *340:s3 3.93512e-05
14 *341:s3 0.000179347
15 *342:s3 0.000104244
16 *343:s3 0.000114462
17 *344:s3 0.000506476
18 *52:272 0.0125232
19 *52:251 0.0113189
20 *52:235 0.00974138
21 *52:211 0.0103225
22 *52:190 0.00996061
23 *52:172 0.00947243
24 *52:161 0.00906487
25 *52:141 0.00938583
26 *52:126 0.00925161
27 *52:115 0.00946805
28 *52:104 0.00950735
29 *52:86 0.0102564
30 *52:65 0.010524
31 *52:43 0.00934777
32 *52:15 0.00454297
33 *52:13 0.0415785
34 *52:11 0.0415785
35 *52:9 0.0185368
36 *52:7 0.0193057
37 *348:s3 *294:10 0
38 *350:s3 *296:12 0
39 *52:9 *61:9 0.0139138
40 *52:13 *344:s4 0.000520171
41 *52:13 *61:13 0.139976
42 *52:161 *296:16 0.000286672
43 *52:172 *296:16 0
44 *52:190 *275:18 0.00057128
45 *52:211 *275:18 0.000111538
46 *52:235 *275:18 0.000454461
47 *52:251 *275:18 0.000965231
48 *52:272 *275:18 3.99777e-06
*RES
1 io_in[2] *52:7 5.99187 
2 *52:7 *52:9 478.554 
3 *52:9 *52:11 3.41 
4 *52:11 *52:13 218.986 
5 *52:13 *52:15 3.41 
6 *52:15 *344:s3 19.2857 
7 *52:15 *52:43 25.7495 
8 *52:43 *343:s3 8.17904 
9 *52:43 *52:65 16.403 
10 *52:65 *342:s3 12.3941 
11 *52:65 *52:86 16.2651 
12 *52:86 *341:s3 9.8316 
13 *52:86 *52:104 15.7074 
14 *52:104 *340:s3 6.90303 
15 *52:104 *52:115 15.7074 
16 *52:115 *339:s3 6.97275 
17 *52:115 *52:126 15.4943 
18 *52:126 *338:s3 11.662 
19 *52:126 *52:141 14.9617 
20 *52:141 *352:s3 9.75125 
21 *52:141 *52:161 16.6975 
22 *52:161 *351:s3 6.90147 
23 *52:161 *52:172 15.1747 
24 *52:172 *350:s3 10.0012 
25 *52:172 *52:190 17.2302 
26 *52:190 *349:s3 12.6798 
27 *52:190 *52:211 15.1998 
28 *52:211 *348:s3 10.6129 
29 *52:211 *52:235 16.9043 
30 *52:235 *347:s3 9.32331 
31 *52:235 *52:251 15.6009 
32 *52:251 *346:s3 7.28373 
33 *52:251 *52:272 16.6474 
34 *52:272 *345:s3 9.90686 
35 *52:272 *337:s3 22.3559 
*END

*D_NET *61 0.503748
*CONN
*P io_in[3] I
*I *347:s4 I *D sky130_osu_ring_oscillator_mpr2ct_8_b0r1
*I *337:s4 I *D sky130_osu_ring_oscillator_mpr2aa_8_b0r1
*I *345:s4 I *D sky130_osu_ring_oscillator_mpr2at_8_b0r1
*I *346:s4 I *D sky130_osu_ring_oscillator_mpr2ca_8_b0r1
*I *348:s4 I *D sky130_osu_ring_oscillator_mpr2ea_8_b0r1
*I *349:s4 I *D sky130_osu_ring_oscillator_mpr2et_8_b0r1
*I *350:s4 I *D sky130_osu_ring_oscillator_mpr2xa_8_b0r1
*I *351:s4 I *D sky130_osu_ring_oscillator_mpr2ya_8_b0r1
*I *352:s4 I *D sky130_osu_ring_oscillator_mpr2aa_8_b0r2
*I *338:s4 I *D sky130_osu_ring_oscillator_mpr2at_8_b0r2
*I *339:s4 I *D sky130_osu_ring_oscillator_mpr2ca_8_b0r2
*I *340:s4 I *D sky130_osu_ring_oscillator_mpr2ct_8_b0r2
*I *341:s4 I *D sky130_osu_ring_oscillator_mpr2ea_8_b0r2
*I *342:s4 I *D sky130_osu_ring_oscillator_mpr2et_8_b0r2
*I *343:s4 I *D sky130_osu_ring_oscillator_mpr2xa_8_b0r2
*I *344:s4 I *D sky130_osu_ring_oscillator_mpr2ya_8_b0r2
*CAP
1 io_in[3] 0.00073504
2 *347:s4 0.000218976
3 *337:s4 0.00501121
4 *345:s4 8.74972e-05
5 *346:s4 3.93512e-05
6 *348:s4 0.000188988
7 *349:s4 0.000211463
8 *350:s4 0.000285713
9 *351:s4 0.000209994
10 *352:s4 0.000195419
11 *338:s4 0.000106352
12 *339:s4 3.10332e-05
13 *340:s4 3.93512e-05
14 *341:s4 0.00019893
15 *342:s4 0.000226493
16 *343:s4 0.000252686
17 *344:s4 0.000690087
18 *61:238 0.00966079
19 *61:227 0.00883252
20 *61:225 0.00953045
21 *61:203 0.00943302
22 *61:188 0.00932565
23 *61:164 0.00941994
24 *61:149 0.00752463
25 *61:133 0.0062268
26 *61:112 0.00596492
27 *61:101 0.00737373
28 *61:90 0.00906415
29 *61:70 0.00940573
30 *61:49 0.0094653
31 *61:38 0.00878295
32 *61:13 0.020103
33 *61:11 0.0155549
34 *61:9 0.00789941
35 *61:7 0.00863445
36 *337:s4 *300:8 0.000552851
37 *339:s4 *313:26 2.44163e-05
38 *348:s4 *310:16 0
39 *350:s4 *312:12 0
40 *352:s4 *334:data_in[6] 0
41 *61:9 *62:9 0.0057029
42 *61:13 *62:13 0.139046
43 *61:38 *305:8 0.000371779
44 *61:70 *303:12 0.000268916
45 *61:101 *62:101 0
46 *61:101 *62:123 0
47 *61:112 *62:123 0
48 *61:112 *310:18 0
49 *61:112 *313:24 0.00744098
50 *61:133 *310:18 0
51 *61:133 *313:24 0.00784344
52 *61:133 *314:8 0.000565941
53 *61:149 *291:18 0
54 *61:149 *310:18 0
55 *61:149 *313:20 0.00498853
56 *61:149 *313:24 0.00080237
57 *61:164 *291:18 0.000285268
58 *61:164 *310:18 0
59 *61:188 *291:18 0.000186274
60 *61:188 *310:18 0
61 *61:203 *291:18 0
62 *61:203 *310:16 0.000327434
63 *61:203 *310:18 0
64 *61:225 *291:18 0
65 *61:227 *291:18 0
66 *61:238 *291:18 0
67 *52:9 *61:9 0.0139138
68 *52:13 *344:s4 0.000520171
69 *52:13 *61:13 0.139976
*RES
1 io_in[3] *61:7 5.84773 
2 *61:7 *61:9 301.268 
3 *61:9 *61:11 3.41 
4 *61:11 *61:13 215.995 
5 *61:13 *344:s4 19.3387 
6 *61:13 *61:38 17.1998 
7 *61:38 *343:s4 7.61195 
8 *61:38 *61:49 15.8139 
9 *61:49 *342:s4 12.8265 
10 *61:49 *61:70 16.2651 
11 *61:70 *341:s4 10.22 
12 *61:70 *61:90 15.7074 
13 *61:90 *340:s4 6.90303 
14 *61:90 *61:101 15.7074 
15 *61:101 *339:s4 6.90147 
16 *61:101 *61:112 15.4943 
17 *61:112 *338:s4 12.6084 
18 *61:112 *61:133 19.6657 
19 *61:133 *352:s4 5.19584 
20 *61:133 *61:149 18.4782 
21 *61:149 *351:s4 7.4686 
22 *61:149 *61:164 15.557 
23 *61:164 *350:s4 11.9477 
24 *61:164 *61:188 17.0861 
25 *61:188 *349:s4 12.5765 
26 *61:188 *61:203 14.9617 
27 *61:203 *348:s4 9.87625 
28 *61:203 *61:225 17.3869 
29 *61:225 *61:227 14.7987 
30 *61:227 *346:s4 6.90303 
31 *61:227 *61:238 15.9205 
32 *61:238 *345:s4 12.287 
33 *61:238 *337:s4 24.7238 
34 *61:225 *347:s4 7.78428 
*END

*D_NET *62 0.398317
*CONN
*P io_in[4] I
*I *342:s5 I *D sky130_osu_ring_oscillator_mpr2et_8_b0r2
*I *345:s5 I *D sky130_osu_ring_oscillator_mpr2at_8_b0r1
*I *337:s5 I *D sky130_osu_ring_oscillator_mpr2aa_8_b0r1
*I *346:s5 I *D sky130_osu_ring_oscillator_mpr2ca_8_b0r1
*I *347:s5 I *D sky130_osu_ring_oscillator_mpr2ct_8_b0r1
*I *348:s5 I *D sky130_osu_ring_oscillator_mpr2ea_8_b0r1
*I *349:s5 I *D sky130_osu_ring_oscillator_mpr2et_8_b0r1
*I *350:s5 I *D sky130_osu_ring_oscillator_mpr2xa_8_b0r1
*I *351:s5 I *D sky130_osu_ring_oscillator_mpr2ya_8_b0r1
*I *352:s5 I *D sky130_osu_ring_oscillator_mpr2aa_8_b0r2
*I *338:s5 I *D sky130_osu_ring_oscillator_mpr2at_8_b0r2
*I *339:s5 I *D sky130_osu_ring_oscillator_mpr2ca_8_b0r2
*I *340:s5 I *D sky130_osu_ring_oscillator_mpr2ct_8_b0r2
*I *341:s5 I *D sky130_osu_ring_oscillator_mpr2ea_8_b0r2
*I *343:s5 I *D sky130_osu_ring_oscillator_mpr2xa_8_b0r2
*I *344:s5 I *D sky130_osu_ring_oscillator_mpr2ya_8_b0r2
*CAP
1 io_in[4] 0.000692115
2 *342:s5 0.00107688
3 *345:s5 0.00019036
4 *337:s5 0.00530474
5 *346:s5 0.000114908
6 *347:s5 0.000167234
7 *348:s5 0.000238424
8 *349:s5 0.000404628
9 *350:s5 0.000221714
10 *351:s5 0.000137971
11 *352:s5 0.000133001
12 *338:s5 0.00106531
13 *339:s5 0.000111098
14 *340:s5 0.000217558
15 *341:s5 0.000192451
16 *343:s5 0.000184565
17 *344:s5 0.000588764
18 *62:316 6.77141e-06
19 *62:282 0.0101994
20 *62:264 0.00925071
21 *62:250 0.00944435
22 *62:230 0.00940552
23 *62:207 0.00835225
24 *62:179 0.00634477
25 *62:165 0.00542797
26 *62:151 0.00541826
27 *62:123 0.00601821
28 *62:101 0.00692747
29 *62:82 0.00926303
30 *62:66 0.00910385
31 *62:58 0.010649
32 *62:43 0.00949101
33 *62:15 0.00453787
34 *62:13 0.0403887
35 *62:11 0.0403887
36 *62:9 0.00407863
37 *62:7 0.00477074
38 *339:s5 *313:26 1.47728e-05
39 *62:58 *304:8 0.000425001
40 *62:101 *315:16 0.000570494
41 *62:123 *310:18 0
42 *62:123 *311:14 0.00727689
43 *62:123 *315:16 0.00530574
44 *62:151 *310:18 0.000278302
45 *62:151 *311:14 0.00567918
46 *62:165 *310:18 0.000926814
47 *62:165 *311:14 0.00290472
48 *62:179 *310:18 0.000963604
49 *62:179 *311:14 0.00300407
50 *62:207 *310:18 0.000186274
51 *62:207 *311:14 0.00552365
52 *62:230 *310:18 0
53 *61:9 *62:9 0.0057029
54 *61:13 *62:13 0.139046
55 *61:101 *62:101 0
56 *61:101 *62:123 0
57 *61:112 *62:123 0
*RES
1 io_in[4] *62:7 5.7036 
2 *62:7 *62:9 123.982 
3 *62:9 *62:11 3.41 
4 *62:11 *62:13 214.517 
5 *62:13 *62:15 3.41 
6 *62:15 *344:s5 20.625 
7 *62:15 *62:43 24.72 
8 *62:43 *343:s5 7.38322 
9 *62:43 *62:58 21.552 
10 *62:58 *62:66 18.2589 
11 *62:66 *341:s5 9.69768 
12 *62:66 *62:82 15.8139 
13 *62:82 *340:s5 7.53597 
14 *62:82 *62:101 16.309 
15 *62:101 *339:s5 8.32268 
16 *62:101 *62:123 24.5453 
17 *62:123 *338:s5 28.0325 
18 *62:123 *62:151 14.4917 
19 *62:151 *352:s5 8.65303 
20 *62:151 *62:165 15.2813 
21 *62:165 *351:s5 7.65431 
22 *62:165 *62:179 15.1747 
23 *62:179 *350:s5 14.7245 
24 *62:179 *62:207 17.3242 
25 *62:207 *349:s5 13.2251 
26 *62:207 *62:230 15.5821 
27 *62:230 *348:s5 11.0325 
28 *62:230 *62:250 16.3466 
29 *62:250 *347:s5 8.94831 
30 *62:250 *62:264 15.3878 
31 *62:264 *346:s5 8.17982 
32 *62:264 *62:282 16.4469 
33 *62:282 *337:s5 25.826 
34 *62:282 *345:s5 9.16684 
35 *345:s5 *62:316 0.276786 
36 *62:58 *342:s5 22.6123 
*END

*D_NET *63 0.28736
*CONN
*P io_in[5] I
*I *337:start I *D sky130_osu_ring_oscillator_mpr2aa_8_b0r1
*I *345:start I *D sky130_osu_ring_oscillator_mpr2at_8_b0r1
*I *346:start I *D sky130_osu_ring_oscillator_mpr2ca_8_b0r1
*I *347:start I *D sky130_osu_ring_oscillator_mpr2ct_8_b0r1
*I *348:start I *D sky130_osu_ring_oscillator_mpr2ea_8_b0r1
*I *349:start I *D sky130_osu_ring_oscillator_mpr2et_8_b0r1
*I *350:start I *D sky130_osu_ring_oscillator_mpr2xa_8_b0r1
*I *351:start I *D sky130_osu_ring_oscillator_mpr2ya_8_b0r1
*I *352:start I *D sky130_osu_ring_oscillator_mpr2aa_8_b0r2
*I *338:start I *D sky130_osu_ring_oscillator_mpr2at_8_b0r2
*I *339:start I *D sky130_osu_ring_oscillator_mpr2ca_8_b0r2
*I *340:start I *D sky130_osu_ring_oscillator_mpr2ct_8_b0r2
*I *341:start I *D sky130_osu_ring_oscillator_mpr2ea_8_b0r2
*I *342:start I *D sky130_osu_ring_oscillator_mpr2et_8_b0r2
*I *343:start I *D sky130_osu_ring_oscillator_mpr2xa_8_b0r2
*I *344:start I *D sky130_osu_ring_oscillator_mpr2ya_8_b0r2
*CAP
1 io_in[5] 0.000941244
2 *337:start 0.000617743
3 *345:start 0.000600022
4 *346:start 0.000545924
5 *347:start 0.000549188
6 *348:start 0.000532248
7 *349:start 0.000559914
8 *350:start 0.000628936
9 *351:start 0.000611214
10 *352:start 0.000549188
11 *338:start 0.000574838
12 *339:start 0.000633926
13 *340:start 0.00060282
14 *341:start 0.000604685
15 *342:start 0.000606318
16 *343:start 0.00059256
17 *344:start 0.00059707
18 *63:211 0.00487862
19 *63:199 0.00927893
20 *63:186 0.00933743
21 *63:173 0.00929076
22 *63:161 0.00927922
23 *63:149 0.00941048
24 *63:135 0.00948383
25 *63:121 0.0093199
26 *63:116 0
27 *63:109 0.00925677
28 *63:95 0.00927722
29 *63:77 0.00933631
30 *63:65 0.00934977
31 *63:53 0.00935163
32 *63:41 0.00936812
33 *63:29 0.00610146
34 *63:17 0.00382965
35 *63:15 0.00436178
36 *63:13 0.0677796
37 *63:11 0.0687209
*RES
1 io_in[5] *63:11 13.2693 
2 *63:11 *63:13 1296.75 
3 *63:13 *63:15 4.5 
4 *63:15 *63:17 66 
5 *63:17 *344:start 16.3661 
6 *63:15 *63:29 22.8929 
7 *63:29 *343:start 15.7232 
8 *63:29 *63:41 89.6786 
9 *63:41 *342:start 15.9866 
10 *63:41 *63:53 89.375 
11 *63:53 *341:start 15.9554 
12 *63:53 *63:65 89.375 
13 *63:65 *340:start 15.9196 
14 *63:65 *63:77 89.375 
15 *63:77 *339:start 17.4911 
16 *63:77 *63:95 88.4643 
17 *63:95 *338:start 15.5089 
18 *63:95 *63:109 89.375 
19 *63:109 *352:start 14.8929 
20 *352:start *63:116 0.134615 
21 *63:109 *63:121 88.4643 
22 *63:121 *351:start 16.0804 
23 *63:121 *63:135 89.0714 
24 *63:135 *350:start 16.4196 
25 *63:135 *63:149 90.8929 
26 *63:149 *349:start 15.0982 
27 *63:149 *63:161 89.375 
28 *63:161 *348:start 15.0625 
29 *63:161 *63:173 89.375 
30 *63:173 *347:start 14.8929 
31 *63:173 *63:186 89.375 
32 *63:186 *346:start 14.8929 
33 *63:186 *63:199 90.2857 
34 *63:199 *345:start 15.8661 
35 *63:199 *63:211 87.25 
36 *63:211 *337:start 16.2054 
*END

*D_NET *64 0.10901
*CONN
*P io_in[6] I
*I *335:select[0] I *D mux16x1_project
*I *334:select[0] I *D mux16x1_project
*I *333:select[0] I *D mux16x1_project
*I *332:select[0] I *D mux16x1_project
*I *336:select[0] I *D mux16x1_project
*CAP
1 io_in[6] 0.000768925
2 *335:select[0] 8.34412e-05
3 *334:select[0] 8.34412e-05
4 *333:select[0] 8.34412e-05
5 *332:select[0] 0.000123633
6 *336:select[0] 0.00046995
7 *64:59 0.00413749
8 *64:57 0.00406017
9 *64:55 0.00475615
10 *64:53 0.00641156
11 *64:51 0.00381703
12 *64:45 0.00720217
13 *64:43 0.0064068
14 *64:41 0.00352467
15 *64:35 0.0074931
16 *64:33 0.00644879
17 *64:29 0.00740922
18 *64:27 0.00726995
19 *64:15 0.00140767
20 *64:13 0.0141836
21 *64:11 0.0141836
22 *64:9 0.0039583
23 *64:7 0.00472723
24 *64:13 *336:select[2] 0
25 *64:13 *65:73 0
*RES
1 io_in[6] *64:7 5.99187 
2 *64:7 *64:9 80.875 
3 *64:9 *64:11 3.41 
4 *64:11 *64:13 46.6021 
5 *64:13 *64:15 3.41 
6 *64:15 *336:select[0] 9.72321 
7 *64:15 *64:27 19.3036 
8 *64:27 *64:29 129.5 
9 *64:29 *64:33 22.25 
10 *64:33 *64:35 108.321 
11 *64:35 *64:41 45.1429 
12 *64:41 *64:43 27.3036 
13 *64:43 *64:45 102.321 
14 *64:45 *64:51 45.1429 
15 *64:51 *64:53 33.3036 
16 *64:53 *64:55 96.3214 
17 *64:55 *64:57 0.946429 
18 *64:57 *64:59 82.4286 
19 *64:59 *332:select[0] 2.52679 
20 *64:53 *333:select[0] 1.70536 
21 *64:43 *334:select[0] 1.70536 
22 *64:33 *335:select[0] 1.70536 
*END

*D_NET *65 0.104147
*CONN
*P io_in[7] I
*I *336:select[1] I *D mux16x1_project
*I *335:select[1] I *D mux16x1_project
*I *332:select[1] I *D mux16x1_project
*I *333:select[1] I *D mux16x1_project
*I *334:select[1] I *D mux16x1_project
*CAP
1 io_in[7] 0.00157006
2 *336:select[1] 0.000602039
3 *335:select[1] 9.70869e-05
4 *332:select[1] 0.00851256
5 *333:select[1] 0.000466213
6 *334:select[1] 6.45578e-05
7 *65:73 0.00924652
8 *65:32 0.0185908
9 *65:21 0.0185768
10 *65:15 0.00917669
11 *65:13 0.0222487
12 *65:11 0.0149949
13 *65:13 *335:select[2] 0
14 *64:13 *65:73 0
*RES
1 io_in[7] *65:11 25.3846 
2 *65:11 *65:13 43.8275 
3 *65:13 *65:15 0.515433 
4 *65:15 *65:21 34.1872 
5 *65:21 *334:select[1] 6.9751 
6 *65:21 *65:32 33.2854 
7 *65:32 *333:select[1] 14.9305 
8 *65:32 *332:select[1] 36.4253 
9 *65:15 *335:select[1] 5.29393 
10 *65:13 *65:73 40.3022 
11 *65:73 *336:select[1] 12.2054 
*END

*D_NET *66 0.102326
*CONN
*P io_in[8] I
*I *332:select[2] I *D mux16x1_project
*I *333:select[2] I *D mux16x1_project