*SPEF "ieee 1481-1999"
*DESIGN "user_project_wrapper"
*DATE "11:11:11 Fri 11 11, 1111"
*VENDOR "OpenRCX"
*PROGRAM "Parallel Extraction"
*VERSION "1.0"
*DESIGN_FLOW "NAME_SCOPE LOCAL" "PIN_CAP NONE"
*DIVIDER /
*DELIMITER :
*BUS_DELIMITER []
*T_UNIT 1 NS
*C_UNIT 1 PF
*R_UNIT 1 OHM
*L_UNIT 1 HENRY

*NAME_MAP
*1 analog_io[0]
*2 analog_io[10]
*3 analog_io[11]
*4 analog_io[12]
*5 analog_io[13]
*6 analog_io[14]
*7 analog_io[15]
*8 analog_io[16]
*9 analog_io[17]
*10 analog_io[18]
*11 analog_io[19]
*12 analog_io[1]
*13 analog_io[20]
*14 analog_io[21]
*15 analog_io[22]
*16 analog_io[23]
*17 analog_io[24]
*18 analog_io[25]
*19 analog_io[26]
*20 analog_io[27]
*21 analog_io[28]
*22 analog_io[2]
*23 analog_io[3]
*24 analog_io[4]
*25 analog_io[5]
*26 analog_io[6]
*27 analog_io[7]
*28 analog_io[8]
*29 analog_io[9]
*30 io_in[0]
*31 io_in[10]
*32 io_in[11]
*33 io_in[12]
*34 io_in[13]
*35 io_in[14]
*36 io_in[15]
*37 io_in[16]
*38 io_in[17]
*39 io_in[18]
*40 io_in[19]
*41 io_in[1]
*42 io_in[20]
*43 io_in[21]
*44 io_in[22]
*45 io_in[23]
*46 io_in[24]
*47 io_in[25]
*48 io_in[26]
*49 io_in[27]
*50 io_in[28]
*51 io_in[29]
*52 io_in[2]
*53 io_in[30]
*54 io_in[31]
*55 io_in[32]
*56 io_in[33]
*57 io_in[34]
*58 io_in[35]
*59 io_in[36]
*60 io_in[37]
*61 io_in[3]
*62 io_in[4]
*63 io_in[5]
*64 io_in[6]
*65 io_in[7]
*66 io_in[8]
*67 io_in[9]
*68 io_oeb[0]
*69 io_oeb[10]
*70 io_oeb[11]
*71 io_oeb[12]
*72 io_oeb[13]
*73 io_oeb[14]
*74 io_oeb[15]
*75 io_oeb[16]
*76 io_oeb[17]
*77 io_oeb[18]
*78 io_oeb[19]
*79 io_oeb[1]
*80 io_oeb[20]
*81 io_oeb[21]
*82 io_oeb[22]
*83 io_oeb[23]
*84 io_oeb[24]
*85 io_oeb[25]
*86 io_oeb[26]
*87 io_oeb[27]
*88 io_oeb[28]
*89 io_oeb[29]
*90 io_oeb[2]
*91 io_oeb[30]
*92 io_oeb[31]
*93 io_oeb[32]
*94 io_oeb[33]
*95 io_oeb[34]
*96 io_oeb[35]
*97 io_oeb[36]
*98 io_oeb[37]
*99 io_oeb[3]
*100 io_oeb[4]
*101 io_oeb[5]
*102 io_oeb[6]
*103 io_oeb[7]
*104 io_oeb[8]
*105 io_oeb[9]
*106 io_out[0]
*107 io_out[10]
*108 io_out[11]
*109 io_out[12]
*110 io_out[13]
*111 io_out[14]
*112 io_out[15]
*113 io_out[16]
*114 io_out[17]
*115 io_out[18]
*116 io_out[19]
*117 io_out[1]
*118 io_out[20]
*119 io_out[21]
*120 io_out[22]
*121 io_out[23]
*122 io_out[24]
*123 io_out[25]
*124 io_out[26]
*125 io_out[27]
*126 io_out[28]
*127 io_out[29]
*128 io_out[2]
*129 io_out[30]
*130 io_out[31]
*131 io_out[32]
*132 io_out[33]
*133 io_out[34]
*134 io_out[35]
*135 io_out[36]
*136 io_out[37]
*137 io_out[3]
*138 io_out[4]
*139 io_out[5]
*140 io_out[6]
*141 io_out[7]
*142 io_out[8]
*143 io_out[9]
*146 wb_clk_i
*147 wb_rst_i
*148 wbs_ack_o
*149 wbs_adr_i[0]
*150 wbs_adr_i[10]
*151 wbs_adr_i[11]
*152 wbs_adr_i[12]
*153 wbs_adr_i[13]
*154 wbs_adr_i[14]
*155 wbs_adr_i[15]
*156 wbs_adr_i[16]
*157 wbs_adr_i[17]
*158 wbs_adr_i[18]
*159 wbs_adr_i[19]
*160 wbs_adr_i[1]
*161 wbs_adr_i[20]
*162 wbs_adr_i[21]
*163 wbs_adr_i[22]
*164 wbs_adr_i[23]
*165 wbs_adr_i[24]
*166 wbs_adr_i[25]
*167 wbs_adr_i[26]
*168 wbs_adr_i[27]
*169 wbs_adr_i[28]
*170 wbs_adr_i[29]
*171 wbs_adr_i[2]
*172 wbs_adr_i[30]
*173 wbs_adr_i[31]
*174 wbs_adr_i[3]
*175 wbs_adr_i[4]
*176 wbs_adr_i[5]
*177 wbs_adr_i[6]
*178 wbs_adr_i[7]
*179 wbs_adr_i[8]
*180 wbs_adr_i[9]
*181 wbs_cyc_i
*182 wbs_dat_i[0]
*183 wbs_dat_i[10]
*184 wbs_dat_i[11]
*185 wbs_dat_i[12]
*186 wbs_dat_i[13]
*187 wbs_dat_i[14]
*188 wbs_dat_i[15]
*189 wbs_dat_i[16]
*190 wbs_dat_i[17]
*191 wbs_dat_i[18]
*192 wbs_dat_i[19]
*193 wbs_dat_i[1]
*194 wbs_dat_i[20]
*195 wbs_dat_i[21]
*196 wbs_dat_i[22]
*197 wbs_dat_i[23]
*198 wbs_dat_i[24]
*199 wbs_dat_i[25]
*200 wbs_dat_i[26]
*201 wbs_dat_i[27]
*202 wbs_dat_i[28]
*203 wbs_dat_i[29]
*204 wbs_dat_i[2]
*205 wbs_dat_i[30]
*206 wbs_dat_i[31]
*207 wbs_dat_i[3]
*208 wbs_dat_i[4]
*209 wbs_dat_i[5]
*210 wbs_dat_i[6]
*211 wbs_dat_i[7]
*212 wbs_dat_i[8]
*213 wbs_dat_i[9]
*214 wbs_dat_o[0]
*215 wbs_dat_o[10]
*216 wbs_dat_o[11]
*217 wbs_dat_o[12]
*218 wbs_dat_o[13]
*219 wbs_dat_o[14]
*220 wbs_dat_o[15]
*221 wbs_dat_o[16]
*222 wbs_dat_o[17]
*223 wbs_dat_o[18]
*224 wbs_dat_o[19]
*225 wbs_dat_o[1]
*226 wbs_dat_o[20]
*227 wbs_dat_o[21]
*228 wbs_dat_o[22]
*229 wbs_dat_o[23]
*230 wbs_dat_o[24]
*231 wbs_dat_o[25]
*232 wbs_dat_o[26]
*233 wbs_dat_o[27]
*234 wbs_dat_o[28]
*235 wbs_dat_o[29]
*236 wbs_dat_o[2]
*237 wbs_dat_o[30]
*238 wbs_dat_o[31]
*239 wbs_dat_o[3]
*240 wbs_dat_o[4]
*241 wbs_dat_o[5]
*242 wbs_dat_o[6]
*243 wbs_dat_o[7]
*244 wbs_dat_o[8]
*245 wbs_dat_o[9]
*246 wbs_sel_i[0]
*247 wbs_sel_i[1]
*248 wbs_sel_i[2]
*249 wbs_sel_i[3]
*250 wbs_stb_i
*251 wbs_we_i
*252 x1\[0\]
*253 x1\[10\]
*254 x1\[11\]
*255 x1\[12\]
*256 x1\[13\]
*257 x1\[14\]
*258 x1\[15\]
*259 x1\[1\]
*260 x1\[2\]
*261 x1\[3\]
*262 x1\[4\]
*263 x1\[5\]
*264 x1\[6\]
*265 x1\[7\]
*266 x1\[8\]
*267 x1\[9\]
*268 x2\[0\]
*269 x2\[10\]
*270 x2\[11\]
*271 x2\[12\]
*272 x2\[13\]
*273 x2\[14\]
*274 x2\[15\]
*275 x2\[1\]
*276 x2\[2\]
*277 x2\[3\]
*278 x2\[4\]
*279 x2\[5\]
*280 x2\[6\]
*281 x2\[7\]
*282 x2\[8\]
*283 x2\[9\]
*284 x3\[0\]
*285 x3\[10\]
*286 x3\[11\]
*287 x3\[12\]
*288 x3\[13\]
*289 x3\[14\]
*290 x3\[15\]
*291 x3\[1\]
*292 x3\[2\]
*293 x3\[3\]
*294 x3\[4\]
*295 x3\[5\]
*296 x3\[6\]
*297 x3\[7\]
*298 x3\[8\]
*299 x3\[9\]
*300 x4\[0\]
*301 x4\[10\]
*302 x4\[11\]
*303 x4\[12\]
*304 x4\[13\]
*305 x4\[14\]
*306 x4\[15\]
*307 x4\[1\]
*308 x4\[2\]
*309 x4\[3\]
*310 x4\[4\]
*311 x4\[5\]
*312 x4\[6\]
*313 x4\[7\]
*314 x4\[8\]
*315 x4\[9\]
*316 x5\[0\]
*317 x5\[10\]
*318 x5\[11\]
*319 x5\[12\]
*320 x5\[13\]
*321 x5\[14\]
*322 x5\[15\]
*323 x5\[1\]
*324 x5\[2\]
*325 x5\[3\]
*326 x5\[4\]
*327 x5\[5\]
*328 x5\[6\]
*329 x5\[7\]
*330 x5\[8\]
*331 x5\[9\]
*332 mprj1
*333 mprj2
*334 mprj3
*335 mprj4
*336 mprj5
*337 ro1
*338 ro10
*339 ro11
*340 ro12
*341 ro13
*342 ro14
*343 ro15
*344 ro16
*345 ro2
*346 ro3
*347 ro4
*348 ro5
*349 ro6
*350 ro7
*351 ro8
*352 ro9

*PORTS
analog_io[0] I
analog_io[10] I
analog_io[11] I
analog_io[12] I
analog_io[13] I
analog_io[14] I
analog_io[15] I
analog_io[16] I
analog_io[17] I
analog_io[18] I
analog_io[19] I
analog_io[1] I
analog_io[20] I
analog_io[21] I
analog_io[22] I
analog_io[23] I
analog_io[24] I
analog_io[25] I
analog_io[26] I
analog_io[27] I
analog_io[28] I
analog_io[2] I
analog_io[3] I
analog_io[4] I
analog_io[5] I
analog_io[6] I
analog_io[7] I
analog_io[8] I
analog_io[9] I
io_in[0] I
io_in[10] I
io_in[11] I
io_in[12] I
io_in[13] I
io_in[14] I
io_in[15] I
io_in[16] I
io_in[17] I
io_in[18] I
io_in[19] I
io_in[1] I
io_in[20] I
io_in[21] I
io_in[22] I
io_in[23] I
io_in[24] I
io_in[25] I
io_in[26] I
io_in[27] I
io_in[28] I
io_in[29] I
io_in[2] I
io_in[30] I
io_in[31] I
io_in[32] I
io_in[33] I
io_in[34] I
io_in[35] I
io_in[36] I
io_in[37] I
io_in[3] I
io_in[4] I
io_in[5] I
io_in[6] I
io_in[7] I
io_in[8] I
io_in[9] I
io_oeb[0] O
io_oeb[10] O
io_oeb[11] O
io_oeb[12] O
io_oeb[13] O
io_oeb[14] O
io_oeb[15] O
io_oeb[16] O
io_oeb[17] O
io_oeb[18] O
io_oeb[19] O
io_oeb[1] O
io_oeb[20] O
io_oeb[21] O
io_oeb[22] O
io_oeb[23] O
io_oeb[24] O
io_oeb[25] O
io_oeb[26] O
io_oeb[27] O
io_oeb[28] O
io_oeb[29] O
io_oeb[2] O
io_oeb[30] O
io_oeb[31] O
io_oeb[32] O
io_oeb[33] O
io_oeb[34] O
io_oeb[35] O
io_oeb[36] O
io_oeb[37] O
io_oeb[3] O
io_oeb[4] O
io_oeb[5] O
io_oeb[6] O
io_oeb[7] O
io_oeb[8] O
io_oeb[9] O
io_out[0] O
io_out[10] O
io_out[11] O
io_out[12] O
io_out[13] O
io_out[14] O
io_out[15] O
io_out[16] O
io_out[17] O
io_out[18] O
io_out[19] O
io_out[1] O
io_out[20] O
io_out[21] O
io_out[22] O
io_out[23] O
io_out[24] O
io_out[25] O
io_out[26] O
io_out[27] O
io_out[28] O
io_out[29] O
io_out[2] O
io_out[30] O
io_out[31] O
io_out[32] O
io_out[33] O
io_out[34] O
io_out[35] O
io_out[36] O
io_out[37] O
io_out[3] O
io_out[4] O
io_out[5] O
io_out[6] O
io_out[7] O
io_out[8] O
io_out[9] O
wb_clk_i I
wb_rst_i I
wbs_ack_o O
wbs_adr_i[0] I
wbs_adr_i[10] I
wbs_adr_i[11] I
wbs_adr_i[12] I
wbs_adr_i[13] I
wbs_adr_i[14] I
wbs_adr_i[15] I
wbs_adr_i[16] I
wbs_adr_i[17] I
wbs_adr_i[18] I
wbs_adr_i[19] I
wbs_adr_i[1] I
wbs_adr_i[20] I
wbs_adr_i[21] I
wbs_adr_i[22] I
wbs_adr_i[23] I
wbs_adr_i[24] I
wbs_adr_i[25] I
wbs_adr_i[26] I
wbs_adr_i[27] I
wbs_adr_i[28] I
wbs_adr_i[29] I
wbs_adr_i[2] I
wbs_adr_i[30] I
wbs_adr_i[31] I
wbs_adr_i[3] I
wbs_adr_i[4] I
wbs_adr_i[5] I
wbs_adr_i[6] I
wbs_adr_i[7] I
wbs_adr_i[8] I
wbs_adr_i[9] I
wbs_cyc_i I
wbs_dat_i[0] I
wbs_dat_i[10] I
wbs_dat_i[11] I
wbs_dat_i[12] I
wbs_dat_i[13] I
wbs_dat_i[14] I
wbs_dat_i[15] I
wbs_dat_i[16] I
wbs_dat_i[17] I
wbs_dat_i[18] I
wbs_dat_i[19] I
wbs_dat_i[1] I
wbs_dat_i[20] I
wbs_dat_i[21] I
wbs_dat_i[22] I
wbs_dat_i[23] I
wbs_dat_i[24] I
wbs_dat_i[25] I
wbs_dat_i[26] I
wbs_dat_i[27] I
wbs_dat_i[28] I
wbs_dat_i[29] I
wbs_dat_i[2] I
wbs_dat_i[30] I
wbs_dat_i[31] I
wbs_dat_i[3] I
wbs_dat_i[4] I
wbs_dat_i[5] I
wbs_dat_i[6] I
wbs_dat_i[7] I
wbs_dat_i[8] I
wbs_dat_i[9] I
wbs_dat_o[0] O
wbs_dat_o[10] O
wbs_dat_o[11] O
wbs_dat_o[12] O
wbs_dat_o[13] O
wbs_dat_o[14] O
wbs_dat_o[15] O
wbs_dat_o[16] O
wbs_dat_o[17] O
wbs_dat_o[18] O
wbs_dat_o[19] O
wbs_dat_o[1] O
wbs_dat_o[20] O
wbs_dat_o[21] O
wbs_dat_o[22] O
wbs_dat_o[23] O
wbs_dat_o[24] O
wbs_dat_o[25] O
wbs_dat_o[26] O
wbs_dat_o[27] O
wbs_dat_o[28] O
wbs_dat_o[29] O
wbs_dat_o[2] O
wbs_dat_o[30] O
wbs_dat_o[31] O
wbs_dat_o[3] O
wbs_dat_o[4] O
wbs_dat_o[5] O
wbs_dat_o[6] O
wbs_dat_o[7] O
wbs_dat_o[8] O
wbs_dat_o[9] O
wbs_sel_i[0] I
wbs_sel_i[1] I
wbs_sel_i[2] I
wbs_sel_i[3] I
wbs_stb_i I
wbs_we_i I

*D_NET *30 0.322236
*CONN
*P io_in[0] I
*I *337:s1 I *D sky130_osu_ring_oscillator_mpr2aa_8_b0r1
*I *352:s1 I *D sky130_osu_ring_oscillator_mpr2aa_8_b0r2
*I *345:s1 I *D sky130_osu_ring_oscillator_mpr2at_8_b0r1
*I *346:s1 I *D sky130_osu_ring_oscillator_mpr2ca_8_b0r1
*I *347:s1 I *D sky130_osu_ring_oscillator_mpr2ct_8_b0r1
*I *348:s1 I *D sky130_osu_ring_oscillator_mpr2ea_8_b0r1
*I *349:s1 I *D sky130_osu_ring_oscillator_mpr2et_8_b0r1
*I *350:s1 I *D sky130_osu_ring_oscillator_mpr2xa_8_b0r1
*I *351:s1 I *D sky130_osu_ring_oscillator_mpr2ya_8_b0r1
*I *338:s1 I *D sky130_osu_ring_oscillator_mpr2at_8_b0r2
*I *339:s1 I *D sky130_osu_ring_oscillator_mpr2ca_8_b0r2
*I *340:s1 I *D sky130_osu_ring_oscillator_mpr2ct_8_b0r2
*I *341:s1 I *D sky130_osu_ring_oscillator_mpr2ea_8_b0r2
*I *342:s1 I *D sky130_osu_ring_oscillator_mpr2et_8_b0r2
*I *343:s1 I *D sky130_osu_ring_oscillator_mpr2xa_8_b0r2
*I *344:s1 I *D sky130_osu_ring_oscillator_mpr2ya_8_b0r2
*CAP
1 io_in[0] 0.000845045
2 *337:s1 0.000461978
3 *352:s1 0.00105429
4 *345:s1 0.000691698
5 *346:s1 0.00442928
6 *347:s1 0.000360406
7 *348:s1 0.000605339
8 *349:s1 0.000686336
9 *350:s1 0.0010424
10 *351:s1 0.000399172
11 *338:s1 0.000875872
12 *339:s1 0.00158132
13 *340:s1 0.000219099
14 *341:s1 0.000154747
15 *342:s1 0.000686114
16 *343:s1 0.00038582
17 *344:s1 0.00095528
18 *30:353 0.00357735
19 *30:351 0.00368491
20 *30:308 0.00438283
21 *30:306 0.00444094
22 *30:289 0.00562198
23 *30:265 0.00625666
24 *30:250 0.00969516
25 *30:235 0.00958138
26 *30:212 0.0102483
27 *30:193 0.00808412
28 *30:191 0.00658682
29 *30:168 0.00812312
30 *30:166 0.00517583
31 *30:133 0.00501186
32 *30:131 0.00422082
33 *30:115 0.00453266
34 *30:113 0.00466936
35 *30:94 0.00148877
36 *30:86 0.00568514
37 *30:71 0.00940229
38 *30:69 0.00503176
39 *30:52 0.00179437
40 *30:48 0.00267656
41 *30:23 0.00390579
42 *30:13 0.0337038
43 *30:11 0.0329071
44 *30:9 0.0380942
45 *30:7 0.0389392
46 *338:s1 *338:s2 9.78959e-05
47 *338:s1 *41:186 0.000824202
48 *338:s1 *41:205 0
49 *338:s1 *63:80 0.000715338
50 *339:s1 *63:61 0
51 *340:s1 *340:s2 0.000196568
52 *342:s1 *342:start 5.49995e-05
53 *343:s1 *63:224 2.49934e-05
54 *344:s1 *41:45 2.83284e-06
55 *344:s1 *63:226 0
56 *346:s1 *260:7 0
57 *347:s1 *347:start 1.29901e-05
58 *348:s1 *348:start 0
59 *348:s1 *41:324 0
60 *349:s1 *349:start 5.49995e-05
61 *350:s1 *350:s2 7.59381e-05
62 *350:s1 *41:272 0.00151323
63 *350:s1 *52:285 0.000162047
64 *351:s1 *351:s2 0.000707098
65 *351:s1 *41:239 0.000270257
66 *352:s1 *352:s2 0
67 *352:s1 *63:92 1.50211e-05
68 *30:13 *344:s4 0
69 *30:13 *41:19 0
70 *30:13 *61:13 0
71 *30:13 *62:29 0.000768268
72 *30:23 *41:19 0
73 *30:23 *41:43 0.00174847
74 *30:48 *41:45 0.00198447
75 *30:48 *63:224 0
76 *30:48 *63:226 0
77 *30:52 *41:51 0.00128877
78 *30:52 *63:224 0
79 *30:69 *41:51 0.000738269
80 *30:69 *41:55 0.000214198
81 *30:71 *41:57 0
82 *30:86 *41:57 0
83 *30:86 *41:83 0
84 *30:94 *341:s2 0
85 *30:115 *254:15 0
86 *30:131 *340:s2 7.23208e-05
87 *30:133 *253:12 0
88 *30:166 *339:s2 0.000120192
89 *30:166 *41:164 0.000440602
90 *30:166 *63:68 0.000835488
91 *30:168 *41:164 0
92 *30:191 *41:164 0
93 *30:191 *41:205 0
94 *30:191 *41:207 0.00655916
95 *30:191 *63:80 0
96 *30:193 *41:207 0.000535207
97 *30:193 *41:235 0.00690816
98 *30:193 *63:92 0
99 *30:212 *41:249 0
100 *30:235 *41:274 0
101 *30:250 *41:274 0
102 *30:250 *41:300 0
103 *30:265 *41:300 0
104 *30:265 *41:331 0
105 *30:289 *347:s2 0
106 *30:289 *41:331 0
107 *30:308 *346:s2 0
108 *30:308 *259:8 0
109 *30:351 *345:start 0
110 *30:353 *337:start 0.000184753
111 *30:353 *41:380 0
112 *30:353 *41:402 0
113 *30:353 *63:194 0.00215216
*RES
1 io_in[0] *30:7 5.99187 
2 *30:7 *30:9 783.946 
3 *30:9 *30:11 3.41 
4 *30:11 *30:13 101.985 
5 *30:13 *30:23 6.98043 
6 *30:23 *344:s1 27.8718 
7 *30:23 *30:48 62.2857 
8 *30:48 *30:52 16.3661 
9 *30:52 *343:s1 21.1884 
10 *30:52 *30:69 17.9652 
11 *30:69 *30:71 85.2768 
12 *30:71 *342:s1 27.2598 
13 *30:71 *30:86 94.0804 
14 *30:86 *30:94 6.50417 
15 *30:94 *341:s1 9.78942 
16 *30:94 *30:113 4.07897 
17 *30:113 *30:115 91.0446 
18 *30:115 *340:s1 6.96429 
19 *340:s1 *30:131 7.53571 
20 *30:131 *30:133 83.7589 
21 *30:133 *339:s1 21.2344 
22 *339:s1 *30:166 26.6534 
23 *30:166 *30:168 93.0179 
24 *30:168 *338:s1 40.5784 
25 *30:168 *30:191 85.8571 
26 *30:191 *30:193 91.5268 
27 *30:193 *351:s1 15.9866 
28 *30:193 *30:212 100.455 
29 *30:212 *350:s1 35.387 
30 *30:212 *30:235 88.9196 
31 *30:235 *349:s1 27.2643 
32 *30:235 *30:250 93.9286 
33 *30:250 *348:s1 25.2687 
34 *30:250 *30:265 93.0179 
35 *30:265 *347:s1 11.3036 
36 *30:265 *30:289 17.8817 
37 *30:289 *346:s1 87.2321 
38 *346:s1 *30:306 7.38713 
39 *30:306 *30:308 87.5536 
40 *30:308 *345:s1 2.63393 
41 *30:191 *352:s1 14.2481 
42 *345:s1 *30:351 25.0054 
43 *30:351 *30:353 82.6964 
44 *30:353 *337:s1 22.5232 
*END

*D_NET *41 0.34449
*CONN
*P io_in[1] I
*I *343:s2 I *D sky130_osu_ring_oscillator_mpr2xa_8_b0r2
*I *351:s2 I *D sky130_osu_ring_oscillator_mpr2ya_8_b0r1
*I *337:s2 I *D sky130_osu_ring_oscillator_mpr2aa_8_b0r1
*I *345:s2 I *D sky130_osu_ring_oscillator_mpr2at_8_b0r1
*I *346:s2 I *D sky130_osu_ring_oscillator_mpr2ca_8_b0r1
*I *347:s2 I *D sky130_osu_ring_oscillator_mpr2ct_8_b0r1
*I *348:s2 I *D sky130_osu_ring_oscillator_mpr2ea_8_b0r1
*I *349:s2 I *D sky130_osu_ring_oscillator_mpr2et_8_b0r1
*I *350:s2 I *D sky130_osu_ring_oscillator_mpr2xa_8_b0r1
*I *352:s2 I *D sky130_osu_ring_oscillator_mpr2aa_8_b0r2
*I *338:s2 I *D sky130_osu_ring_oscillator_mpr2at_8_b0r2
*I *339:s2 I *D sky130_osu_ring_oscillator_mpr2ca_8_b0r2
*I *340:s2 I *D sky130_osu_ring_oscillator_mpr2ct_8_b0r2
*I *341:s2 I *D sky130_osu_ring_oscillator_mpr2ea_8_b0r2
*I *342:s2 I *D sky130_osu_ring_oscillator_mpr2et_8_b0r2
*I *344:s2 I *D sky130_osu_ring_oscillator_mpr2ya_8_b0r2
*CAP
1 io_in[1] 0.0312139
2 *343:s2 0.00223972
3 *351:s2 0.000990968
4 *337:s2 0.00200623
5 *345:s2 0.00222254
6 *346:s2 0.00180926
7 *347:s2 0.00210445
8 *348:s2 0
9 *349:s2 0.00246107
10 *350:s2 0.00103741
11 *352:s2 0.0022297
12 *338:s2 0.001247
13 *339:s2 0.00102527
14 *340:s2 0.00110891
15 *341:s2 0.00212155
16 *342:s2 0.00237175
17 *344:s2 0.000604262
18 *41:402 0.00603555
19 *41:380 0.00788412
20 *41:376 0.00375618
21 *41:353 0.00770864
22 *41:331 0.00936408
23 *41:324 0.00156641
24 *41:300 0.00845065
25 *41:274 0.00960216
26 *41:272 0.00431262
27 *41:251 0.00443005
28 *41:249 0.00375843
29 *41:239 0.00205599
30 *41:235 0.00271333
31 *41:207 0.00747094
32 *41:205 0.00310118
33 *41:186 0.00161836
34 *41:164 0.00466153
35 *41:137 0.00848842
36 *41:115 0.0078907
37 *41:83 0.00875809
38 *41:57 0.00941388
39 *41:55 0.00400459
40 *41:51 0.00338613
41 *41:45 0.00287175
42 *41:43 0.00300346
43 *41:19 0.00389029
44 *41:13 0.00669621
45 *41:11 0.00427868
46 *41:9 0.0249852
47 *41:7 0.024959
48 *41:5 0.0312139
49 *350:s2 *350:start 2.51343e-06
50 *41:9 *52:9 0
51 *41:13 *52:9 0
52 *41:13 *62:29 0
53 *41:19 *344:s3 0
54 *41:19 *344:s4 0.000572187
55 *41:51 *343:start 0.00106126
56 *41:57 *63:19 0.00184833
57 *41:57 *63:31 0.000219646
58 *41:83 *63:31 0.00238381
59 *41:83 *63:43 0.000185353
60 *41:115 *63:43 0.0018768
61 *41:115 *63:47 0.000688823
62 *41:137 *63:47 0.000159925
63 *41:137 *63:59 0.00101287
64 *41:137 *63:61 0.00191437
65 *41:164 *63:61 1.97548e-05
66 *41:164 *63:68 0.00230854
67 *41:164 *63:80 3.03658e-05
68 *41:186 *338:start 3.426e-05
69 *41:186 *63:80 8.00521e-05
70 *41:205 *63:80 0.000115325
71 *41:249 *52:275 2.57626e-05
72 *41:249 *63:96 7.85417e-05
73 *41:249 *63:112 0.000261189
74 *41:251 *52:277 0.0037043
75 *41:251 *63:114 0
76 *41:272 *52:277 0.000261854
77 *41:272 *63:132 0
78 *41:274 *63:134 0.00231377
79 *41:274 *63:146 0.000270422
80 *41:300 *63:146 0.0022957
81 *41:300 *63:158 3.06986e-05
82 *41:324 *348:start 6.52296e-05
83 *41:324 *63:146 5.54817e-06
84 *41:324 *63:158 0.000386894
85 *41:331 *63:158 0.00233303
86 *41:331 *63:170 0.000233419
87 *41:353 *63:170 0.00242612
88 *41:353 *63:182 0.000315443
89 *41:376 *63:182 0.00154526
90 *41:380 *63:182 0
91 *338:s1 *338:s2 9.78959e-05
92 *338:s1 *41:186 0.000824202
93 *338:s1 *41:205 0
94 *340:s1 *340:s2 0.000196568
95 *344:s1 *41:45 2.83284e-06
96 *348:s1 *41:324 0
97 *350:s1 *350:s2 7.59381e-05
98 *350:s1 *41:272 0.00151323
99 *351:s1 *351:s2 0.000707098
100 *351:s1 *41:239 0.000270257
101 *352:s1 *352:s2 0
102 *30:13 *41:19 0
103 *30:23 *41:19 0
104 *30:23 *41:43 0.00174847
105 *30:48 *41:45 0.00198447
106 *30:52 *41:51 0.00128877
107 *30:69 *41:51 0.000738269
108 *30:69 *41:55 0.000214198
109 *30:71 *41:57 0
110 *30:86 *41:57 0
111 *30:86 *41:83 0
112 *30:94 *341:s2 0
113 *30:131 *340:s2 7.23208e-05
114 *30:166 *339:s2 0.000120192
115 *30:166 *41:164 0.000440602
116 *30:168 *41:164 0
117 *30:191 *41:164 0
118 *30:191 *41:205 0
119 *30:191 *41:207 0.00655916
120 *30:193 *41:207 0.000535207
121 *30:193 *41:235 0.00690816
122 *30:212 *41:249 0
123 *30:235 *41:274 0
124 *30:250 *41:274 0
125 *30:250 *41:300 0
126 *30:265 *41:300 0
127 *30:265 *41:331 0
128 *30:289 *347:s2 0
129 *30:289 *41:331 0
130 *30:308 *346:s2 0
131 *30:353 *41:380 0
132 *30:353 *41:402 0
*RES
1 io_in[1] *41:5 96.5568 
2 *41:5 *41:7 3.41 
3 *41:7 *41:9 514.196 
4 *41:9 *41:11 0.535714 
5 *41:11 *41:13 86.5179 
6 *41:13 *41:19 15.0826 
7 *41:19 *344:s2 17.4595 
8 *41:19 *41:43 15.1228 
9 *41:43 *41:45 62.2857 
10 *41:45 *41:51 31.7671 
11 *41:51 *41:55 5.11453 
12 *41:55 *41:57 89.9821 
13 *41:57 *342:s2 27.7426 
14 *41:57 *41:83 92.4107 
15 *41:83 *341:s2 27.8644 
16 *41:83 *41:115 83.4554 
17 *41:115 *340:s2 36.192 
18 *41:115 *41:137 96.0536 
19 *41:137 *339:s2 25.9643 
20 *41:137 *41:164 105.009 
21 *41:164 *41:186 24.8807 
22 *41:186 *338:s2 34.7321 
23 *41:164 *41:205 12.3536 
24 *41:205 *41:207 86.9464 
25 *41:207 *352:s2 26.9608 
26 *41:207 *41:235 84.6696 
27 *41:235 *41:239 7.5 
28 *41:239 *41:249 23.3192 
29 *41:249 *41:251 84.0625 
30 *41:251 *350:s2 34.7232 
31 *41:251 *41:272 15.7835 
32 *41:272 *41:274 97.875 
33 *41:274 *349:s2 29.0415 
34 *41:274 *41:300 92.4107 
35 *41:300 *41:324 49.3533 
36 *41:324 *348:s2 4.5 
37 *41:300 *41:331 92.4107 
38 *41:331 *347:s2 25.8744 
39 *41:331 *41:353 98.4821 
40 *41:353 *346:s2 28.2498 
41 *41:353 *41:376 55.5 
42 *41:376 *41:380 33.5536 
43 *41:380 *345:s2 17.127 
44 *41:380 *41:402 82.6964 
45 *41:402 *337:s2 18.4969 
46 *41:239 *351:s2 22.8795 
47 *41:51 *343:s2 27.9245 
*END

*D_NET *52 0.375433
*CONN
*P io_in[2] I
*I *351:s3 I *D sky130_osu_ring_oscillator_mpr2ya_8_b0r1
*I *337:s3 I *D sky130_osu_ring_oscillator_mpr2aa_8_b0r1
*I *345:s3 I *D sky130_osu_ring_oscillator_mpr2at_8_b0r1
*I *346:s3 I *D sky130_osu_ring_oscillator_mpr2ca_8_b0r1
*I *347:s3 I *D sky130_osu_ring_oscillator_mpr2ct_8_b0r1
*I *348:s3 I *D sky130_osu_ring_oscillator_mpr2ea_8_b0r1
*I *349:s3 I *D sky130_osu_ring_oscillator_mpr2et_8_b0r1
*I *350:s3 I *D sky130_osu_ring_oscillator_mpr2xa_8_b0r1
*I *352:s3 I *D sky130_osu_ring_oscillator_mpr2aa_8_b0r2
*I *338:s3 I *D sky130_osu_ring_oscillator_mpr2at_8_b0r2
*I *339:s3 I *D sky130_osu_ring_oscillator_mpr2ca_8_b0r2
*I *340:s3 I *D sky130_osu_ring_oscillator_mpr2ct_8_b0r2
*I *341:s3 I *D sky130_osu_ring_oscillator_mpr2ea_8_b0r2
*I *342:s3 I *D sky130_osu_ring_oscillator_mpr2et_8_b0r2
*I *343:s3 I *D sky130_osu_ring_oscillator_mpr2xa_8_b0r2
*I *344:s3 I *D sky130_osu_ring_oscillator_mpr2ya_8_b0r2
*CAP
1 io_in[2] 0.0332468
2 *351:s3 2.84151e-05
3 *337:s3 0.00236903
4 *345:s3 0.00184242
5 *346:s3 0.0028196
6 *347:s3 0.00249973
7 *348:s3 0.00270488
8 *349:s3 0.00227146
9 *350:s3 0.000478786
10 *352:s3 0.00242704
11 *338:s3 0.00208005
12 *339:s3 0.00254603
13 *340:s3 0.00252221
14 *341:s3 0.00271058
15 *342:s3 0.00249056
16 *343:s3 0.00261087
17 *344:s3 0.00224749
18 *52:465 0.00543176
19 *52:433 0.00593137
20 *52:421 0.0035686
21 *52:419 0.00270325
22 *52:396 0.00298048
23 *52:394 0.0032087
24 *52:373 0.00575398
25 *52:369 0.0027232
26 *52:343 0.00959322
27 *52:341 0.00421069
28 *52:313 0.00254328
29 *52:309 0.00280279
30 *52:307 0.00481435
31 *52:285 0.00496613
32 *52:277 0.00507466
33 *52:275 0.00551551
34 *52:251 0.0043223
35 *52:243 0.00335387
36 *52:217 0.00434857
37 *52:209 0.00300849
38 *52:189 0.00545579
39 *52:183 0.0037044
40 *52:181 0.00361031
41 *52:158 0.00436596
42 *52:152 0.00312953
43 *52:150 0.00179949
44 *52:127 0.00272202
45 *52:123 0.0019026
46 *52:121 0.00318461
47 *52:93 0.00808134
48 *52:91 0.00388894
49 *52:67 0.00281695
50 *52:63 0.00439465
51 *52:61 0.00447305
52 *52:33 0.00301565
53 *52:31 0.00333845
54 *52:29 0.00371584
55 *52:11 0.00262488
56 *52:9 0.0201935
57 *52:7 0.0201935
58 *52:5 0.0332468
59 *337:s3 *337:s4 0.00104421
60 *338:s3 *61:230 0.000504017
61 *342:s3 *61:109 8.80635e-05
62 *344:s3 *344:s4 1.2012e-05
63 *345:s3 *62:348 0
64 *345:s3 *62:364 6.16532e-05
65 *345:s3 *62:366 0
66 *346:s3 *62:334 0
67 *347:s3 *61:411 0
68 *349:s3 *349:s4 0.00120023
69 *349:s3 *61:321 0.000515907
70 *349:s3 *310:13 0
71 *52:9 *62:29 0.000200978
72 *52:31 *61:39 0.0062444
73 *52:31 *62:31 3.89006e-05
74 *52:31 *62:46 0.00124691
75 *52:63 *61:109 0.00138178
76 *52:63 *258:13 0
77 *52:63 *320:20 2.06725e-05
78 *52:67 *61:109 0.000121352
79 *52:93 *61:131 0.000362903
80 *52:93 *61:133 0.000107769
81 *52:93 *62:80 0.00127256
82 *52:93 *62:84 0
83 *52:93 *62:86 0
84 *52:93 *303:11 0
85 *52:121 *61:133 0.00389643
86 *52:121 *303:11 0
87 *52:121 *329:17 0
88 *52:121 *330:13 0
89 *52:123 *61:133 0.001512
90 *52:123 *61:165 0.000952406
91 *52:123 *329:17 0
92 *52:127 *61:165 0.00025873
93 *52:152 *61:167 0.00251103
94 *52:158 *61:167 0.000374733
95 *52:158 *62:148 0.000883141
96 *52:158 *301:19 0.000616157
97 *52:158 *317:15 8.10114e-05
98 *52:181 *62:148 0.000762302
99 *52:183 *258:13 0
100 *52:183 *316:18 0.00422385
101 *52:189 *314:17 0.000506567
102 *52:209 *61:230 0.0070765
103 *52:209 *62:206 0.000685074
104 *52:209 *298:15 0
105 *52:217 *61:240 0
106 *52:217 *62:206 7.68268e-05
107 *52:243 *62:206 0.000513592
108 *52:243 *62:208 0.00502189
109 *52:243 *296:14 0.00172755
110 *52:251 *351:s5 0.000539121
111 *52:251 *62:208 8.71234e-05
112 *52:251 *62:228 1.03904e-05
113 *52:251 *296:14 9.31907e-05
114 *52:251 *329:15 2.19582e-05
115 *52:277 *63:114 0
116 *52:277 *63:132 0
117 *52:309 *61:321 0.00351644
118 *52:309 *258:13 0
119 *52:309 *316:18 0.00446964
120 *52:309 *327:15 8.01984e-05
121 *52:313 *61:321 0.000709699
122 *52:313 *310:13 0
123 *52:343 *62:276 0
124 *52:343 *62:280 0.000288744
125 *52:343 *62:294 0.000801829
126 *52:369 *61:385 0.000131587
127 *52:369 *61:411 0.000358826
128 *52:369 *62:294 0.00654548
129 *52:369 *62:314 0.000906582
130 *52:369 *325:15 2.31834e-05
131 *52:373 *61:411 8.14104e-05
132 *52:373 *62:314 3.79514e-05
133 *52:394 *61:411 0.000404442
134 *52:394 *62:314 0.00373256
135 *52:394 *62:334 0.000747935
136 *52:419 *62:334 0
137 *52:421 *62:334 0
138 *52:421 *62:336 0.00308995
139 *52:421 *316:18 0
140 *52:433 *62:336 0.000190974
141 *52:433 *62:348 2.06725e-05
142 *52:433 *62:364 1.76696e-05
143 *52:433 *316:18 0
144 *52:433 *323:15 1.67474e-05
145 *52:465 *61:495 0.00364175
146 *52:465 *62:366 0
147 *350:s1 *52:285 0.000162047
148 *41:9 *52:9 0
149 *41:13 *52:9 0
150 *41:19 *344:s3 0
151 *41:249 *52:275 2.57626e-05
152 *41:251 *52:277 0.0037043
153 *41:272 *52:277 0.000261854
*RES
1 io_in[2] *52:5 96.1244 
2 *52:5 *52:7 3.41 
3 *52:7 *52:9 416.625 
4 *52:9 *52:11 3.41 
5 *52:11 *344:s3 11.3772 
6 *52:11 *52:29 4.61007 
7 *52:29 *52:31 101.518 
8 *52:31 *52:33 3.41 
9 *52:33 *343:s3 28.8824 
10 *52:33 *52:61 4.538 
11 *52:61 *52:63 92.4107 
12 *52:63 *52:67 4.46593 
13 *52:67 *342:s3 26.8333 
14 *52:67 *52:91 3.41 
15 *52:91 *52:93 91.1964 
16 *52:93 *341:s3 28.3622 
17 *52:93 *52:121 48.3571 
18 *52:121 *52:123 50.1786 
19 *52:123 *52:127 4.1056 
20 *52:127 *340:s3 27.142 
21 *52:127 *52:150 3.41 
22 *52:150 *52:152 54.8036 
23 *52:152 *52:158 41.6779 
24 *52:158 *339:s3 25.9466 
25 *52:158 *52:181 5.11453 
26 *52:181 *52:183 93.0179 
27 *52:183 *52:189 9.029 
28 *52:189 *338:s3 19.7805 
29 *52:189 *52:209 91.8036 
30 *52:209 *52:217 9.70884 
31 *52:217 *352:s3 29.492 
32 *52:217 *52:243 77.3929 
33 *52:243 *52:251 40.1518 
34 *52:251 *52:275 39.5621 
35 *52:275 *52:277 86.9464 
36 *52:277 *52:285 10.8235 
37 *52:285 *350:s3 17.802 
38 *52:285 *52:307 10.3033 
39 *52:307 *52:309 99.0893 
40 *52:309 *52:313 4.538 
41 *52:313 *349:s3 28.8505 
42 *52:313 *52:341 3.41 
43 *52:341 *52:343 90.5893 
44 *52:343 *348:s3 29.3971 
45 *52:343 *52:369 91.5179 
46 *52:369 *52:373 1.55357 
47 *52:373 *347:s3 26.613 
48 *52:373 *52:394 98.4821 
49 *52:394 *52:396 3.41 
50 *52:396 *346:s3 28.3759 
51 *52:396 *52:419 3.8894 
52 *52:419 *52:421 73.375 
53 *52:421 *52:433 21.7898 
54 *52:433 *345:s3 43.2637 
55 *52:433 *52:465 87.5536 
56 *52:465 *337:s3 29.0723 
57 *52:251 *351:s3 0.571429 
*END

*D_NET *61 0.311733
*CONN
*P io_in[3] I
*I *352:s4 I *D sky130_osu_ring_oscillator_mpr2aa_8_b0r2
*I *337:s4 I *D sky130_osu_ring_oscillator_mpr2aa_8_b0r1
*I *345:s4 I *D sky130_osu_ring_oscillator_mpr2at_8_b0r1
*I *346:s4 I *D sky130_osu_ring_oscillator_mpr2ca_8_b0r1
*I *347:s4 I *D sky130_osu_ring_oscillator_mpr2ct_8_b0r1
*I *348:s4 I *D sky130_osu_ring_oscillator_mpr2ea_8_b0r1
*I *349:s4 I *D sky130_osu_ring_oscillator_mpr2et_8_b0r1
*I *350:s4 I *D sky130_osu_ring_oscillator_mpr2xa_8_b0r1
*I *351:s4 I *D sky130_osu_ring_oscillator_mpr2ya_8_b0r1
*I *338:s4 I *D sky130_osu_ring_oscillator_mpr2at_8_b0r2
*I *339:s4 I *D sky130_osu_ring_oscillator_mpr2ca_8_b0r2
*I *340:s4 I *D sky130_osu_ring_oscillator_mpr2ct_8_b0r2
*I *341:s4 I *D sky130_osu_ring_oscillator_mpr2ea_8_b0r2
*I *342:s4 I *D sky130_osu_ring_oscillator_mpr2et_8_b0r2
*I *343:s4 I *D sky130_osu_ring_oscillator_mpr2xa_8_b0r2
*I *344:s4 I *D sky130_osu_ring_oscillator_mpr2ya_8_b0r2
*CAP
1 io_in[3] 0.0232563
2 *352:s4 0.000222887
3 *337:s4 0.00144504
4 *345:s4 0.00220772
5 *346:s4 0.00125104
6 *347:s4 0.00112316
7 *348:s4 0.00176213
8 *349:s4 0.00117014
9 *350:s4 0.00132468
10 *351:s4 0.00269548
11 *338:s4 0.000554462
12 *339:s4 0.000388899
13 *340:s4 0.00108496
14 *341:s4 0.000945712
15 *342:s4 0.000995932
16 *343:s4 0.000255726
17 *344:s4 0.00207213
18 *61:495 0.004117
19 *61:493 0.00393632
20 *61:449 0.0050629
21 *61:447 0.00444276
22 *61:413 0.00468895
23 *61:411 0.00454636
24 *61:400 3.83018e-06
25 *61:385 0.00434444
26 *61:377 0.00518154
27 *61:375 0.00326187
28 *61:351 0.00478372
29 *61:349 0.00354177
30 *61:321 0.00301428
31 *61:315 0.00333219
32 *61:309 0.00446532
33 *61:307 0.00322985
34 *61:281 0.00378181
35 *61:279 0.00518223
36 *61:246 0.00441343
37 *61:244 0.00420401
38 *61:240 0.00156048
39 *61:230 0.00427782
40 *61:228 0.0034266
41 *61:204 0.00411095
42 *61:190 0.00611195
43 *61:173 0.00473036
44 *61:167 0.00271961
45 *61:165 0.00208102
46 *61:148 0
47 *61:133 0.00440008
48 *61:131 0.00310146
49 *61:113 0.00140665
50 *61:111 0.00299205
51 *61:109 0.00589725
52 *61:83 0.00390114
53 *61:81 0.0034441
54 *61:79 0.00376692
55 *61:51 0.00164742
56 *61:39 0.00212808
57 *61:37 0.0010592
58 *61:13 0.00958268
59 *61:9 0.0195514
60 *61:7 0.0120408
61 *61:5 0.0232563
62 *341:s4 *341:s5 0.000534008
63 *341:s4 *303:9 0
64 *344:s4 *62:29 0.000146353
65 *345:s4 *307:12 0
66 *346:s4 *346:s5 0.000208367
67 *347:s4 *347:s5 0
68 *348:s4 *262:7 0.00030419
69 *348:s4 *310:7 0
70 *350:s4 *350:s5 0
71 *61:13 *62:29 1.60489e-05
72 *61:39 *62:31 0.00599886
73 *61:51 *305:12 0
74 *61:109 *258:13 0
75 *61:109 *320:20 1.94879e-05
76 *61:111 *62:80 0
77 *61:111 *62:84 0.00196955
78 *61:111 *62:86 0.000883248
79 *61:131 *341:s5 5.33005e-05
80 *61:131 *62:100 0
81 *61:131 *303:9 0
82 *61:133 *62:100 0
83 *61:165 *62:128 0
84 *61:167 *62:128 0.00664426
85 *61:167 *301:19 0.00153198
86 *61:204 *338:s5 0
87 *61:204 *329:17 0
88 *61:204 *331:13 2.3543e-05
89 *61:228 *62:180 4.19629e-05
90 *61:230 *62:180 0
91 *61:230 *62:184 0
92 *61:230 *62:190 0
93 *61:246 *313:12 0
94 *61:281 *62:230 0.00354397
95 *61:281 *62:248 2.35521e-05
96 *61:281 *62:250 6.49139e-05
97 *61:281 *295:14 0
98 *61:321 *258:13 0
99 *61:321 *316:18 1.37595e-05
100 *61:385 *62:294 0.00258499
101 *61:413 *62:314 0
102 *61:495 *316:16 6.01779e-05
103 *337:s3 *337:s4 0.00104421
104 *338:s3 *61:230 0.000504017
105 *342:s3 *61:109 8.80635e-05
106 *344:s3 *344:s4 1.2012e-05
107 *347:s3 *61:411 0
108 *349:s3 *349:s4 0.00120023
109 *349:s3 *61:321 0.000515907
110 *30:13 *344:s4 0
111 *30:13 *61:13 0
112 *41:19 *344:s4 0.000572187
113 *52:31 *61:39 0.0062444
114 *52:63 *61:109 0.00138178
115 *52:67 *61:109 0.000121352
116 *52:93 *61:131 0.000362903
117 *52:93 *61:133 0.000107769
118 *52:121 *61:133 0.00389643
119 *52:123 *61:133 0.001512
120 *52:123 *61:165 0.000952406
121 *52:127 *61:165 0.00025873
122 *52:152 *61:167 0.00251103
123 *52:158 *61:167 0.000374733
124 *52:209 *61:230 0.0070765
125 *52:217 *61:240 0
126 *52:309 *61:321 0.00351644