*SPEF "ieee 1481-1999"
*DESIGN "user_project_wrapper"
*DATE "11:11:11 Fri 11 11, 1111"
*VENDOR "OpenRCX"
*PROGRAM "Parallel Extraction"
*VERSION "1.0"
*DESIGN_FLOW "NAME_SCOPE LOCAL" "PIN_CAP NONE"
*DIVIDER /
*DELIMITER :
*BUS_DELIMITER []
*T_UNIT 1 NS
*C_UNIT 1 PF
*R_UNIT 1 OHM
*L_UNIT 1 HENRY

*NAME_MAP
*1 analog_io[0]
*2 analog_io[10]
*3 analog_io[11]
*4 analog_io[12]
*5 analog_io[13]
*6 analog_io[14]
*7 analog_io[15]
*8 analog_io[16]
*9 analog_io[17]
*10 analog_io[18]
*11 analog_io[19]
*12 analog_io[1]
*13 analog_io[20]
*14 analog_io[21]
*15 analog_io[22]
*16 analog_io[23]
*17 analog_io[24]
*18 analog_io[25]
*19 analog_io[26]
*20 analog_io[27]
*21 analog_io[28]
*22 analog_io[2]
*23 analog_io[3]
*24 analog_io[4]
*25 analog_io[5]
*26 analog_io[6]
*27 analog_io[7]
*28 analog_io[8]
*29 analog_io[9]
*30 io_in[0]
*31 io_in[10]
*32 io_in[11]
*33 io_in[12]
*34 io_in[13]
*35 io_in[14]
*36 io_in[15]
*37 io_in[16]
*38 io_in[17]
*39 io_in[18]
*40 io_in[19]
*41 io_in[1]
*42 io_in[20]
*43 io_in[21]
*44 io_in[22]
*45 io_in[23]
*46 io_in[24]
*47 io_in[25]
*48 io_in[26]
*49 io_in[27]
*50 io_in[28]
*51 io_in[29]
*52 io_in[2]
*53 io_in[30]
*54 io_in[31]
*55 io_in[32]
*56 io_in[33]
*57 io_in[34]
*58 io_in[35]
*59 io_in[36]
*60 io_in[37]
*61 io_in[3]
*62 io_in[4]
*63 io_in[5]
*64 io_in[6]
*65 io_in[7]
*66 io_in[8]
*67 io_in[9]
*68 io_oeb[0]
*69 io_oeb[10]
*70 io_oeb[11]
*71 io_oeb[12]
*72 io_oeb[13]
*73 io_oeb[14]
*74 io_oeb[15]
*75 io_oeb[16]
*76 io_oeb[17]
*77 io_oeb[18]
*78 io_oeb[19]
*79 io_oeb[1]
*80 io_oeb[20]
*81 io_oeb[21]
*82 io_oeb[22]
*83 io_oeb[23]
*84 io_oeb[24]
*85 io_oeb[25]
*86 io_oeb[26]
*87 io_oeb[27]
*88 io_oeb[28]
*89 io_oeb[29]
*90 io_oeb[2]
*91 io_oeb[30]
*92 io_oeb[31]
*93 io_oeb[32]
*94 io_oeb[33]
*95 io_oeb[34]
*96 io_oeb[35]
*97 io_oeb[36]
*98 io_oeb[37]
*99 io_oeb[3]
*100 io_oeb[4]
*101 io_oeb[5]
*102 io_oeb[6]
*103 io_oeb[7]
*104 io_oeb[8]
*105 io_oeb[9]
*106 io_out[0]
*107 io_out[10]
*108 io_out[11]
*109 io_out[12]
*110 io_out[13]
*111 io_out[14]
*112 io_out[15]
*113 io_out[16]
*114 io_out[17]
*115 io_out[18]
*116 io_out[19]
*117 io_out[1]
*118 io_out[20]
*119 io_out[21]
*120 io_out[22]
*121 io_out[23]
*122 io_out[24]
*123 io_out[25]
*124 io_out[26]
*125 io_out[27]
*126 io_out[28]
*127 io_out[29]
*128 io_out[2]
*129 io_out[30]
*130 io_out[31]
*131 io_out[32]
*132 io_out[33]
*133 io_out[34]
*134 io_out[35]
*135 io_out[36]
*136 io_out[37]
*137 io_out[3]
*138 io_out[4]
*139 io_out[5]
*140 io_out[6]
*141 io_out[7]
*142 io_out[8]
*143 io_out[9]
*146 wb_clk_i
*147 wb_rst_i
*148 wbs_ack_o
*149 wbs_adr_i[0]
*150 wbs_adr_i[10]
*151 wbs_adr_i[11]
*152 wbs_adr_i[12]
*153 wbs_adr_i[13]
*154 wbs_adr_i[14]
*155 wbs_adr_i[15]
*156 wbs_adr_i[16]
*157 wbs_adr_i[17]
*158 wbs_adr_i[18]
*159 wbs_adr_i[19]
*160 wbs_adr_i[1]
*161 wbs_adr_i[20]
*162 wbs_adr_i[21]
*163 wbs_adr_i[22]
*164 wbs_adr_i[23]
*165 wbs_adr_i[24]
*166 wbs_adr_i[25]
*167 wbs_adr_i[26]
*168 wbs_adr_i[27]
*169 wbs_adr_i[28]
*170 wbs_adr_i[29]
*171 wbs_adr_i[2]
*172 wbs_adr_i[30]
*173 wbs_adr_i[31]
*174 wbs_adr_i[3]
*175 wbs_adr_i[4]
*176 wbs_adr_i[5]
*177 wbs_adr_i[6]
*178 wbs_adr_i[7]
*179 wbs_adr_i[8]
*180 wbs_adr_i[9]
*181 wbs_cyc_i
*182 wbs_dat_i[0]
*183 wbs_dat_i[10]
*184 wbs_dat_i[11]
*185 wbs_dat_i[12]
*186 wbs_dat_i[13]
*187 wbs_dat_i[14]
*188 wbs_dat_i[15]
*189 wbs_dat_i[16]
*190 wbs_dat_i[17]
*191 wbs_dat_i[18]
*192 wbs_dat_i[19]
*193 wbs_dat_i[1]
*194 wbs_dat_i[20]
*195 wbs_dat_i[21]
*196 wbs_dat_i[22]
*197 wbs_dat_i[23]
*198 wbs_dat_i[24]
*199 wbs_dat_i[25]
*200 wbs_dat_i[26]
*201 wbs_dat_i[27]
*202 wbs_dat_i[28]
*203 wbs_dat_i[29]
*204 wbs_dat_i[2]
*205 wbs_dat_i[30]
*206 wbs_dat_i[31]
*207 wbs_dat_i[3]
*208 wbs_dat_i[4]
*209 wbs_dat_i[5]
*210 wbs_dat_i[6]
*211 wbs_dat_i[7]
*212 wbs_dat_i[8]
*213 wbs_dat_i[9]
*214 wbs_dat_o[0]
*215 wbs_dat_o[10]
*216 wbs_dat_o[11]
*217 wbs_dat_o[12]
*218 wbs_dat_o[13]
*219 wbs_dat_o[14]
*220 wbs_dat_o[15]
*221 wbs_dat_o[16]
*222 wbs_dat_o[17]
*223 wbs_dat_o[18]
*224 wbs_dat_o[19]
*225 wbs_dat_o[1]
*226 wbs_dat_o[20]
*227 wbs_dat_o[21]
*228 wbs_dat_o[22]
*229 wbs_dat_o[23]
*230 wbs_dat_o[24]
*231 wbs_dat_o[25]
*232 wbs_dat_o[26]
*233 wbs_dat_o[27]
*234 wbs_dat_o[28]
*235 wbs_dat_o[29]
*236 wbs_dat_o[2]
*237 wbs_dat_o[30]
*238 wbs_dat_o[31]
*239 wbs_dat_o[3]
*240 wbs_dat_o[4]
*241 wbs_dat_o[5]
*242 wbs_dat_o[6]
*243 wbs_dat_o[7]
*244 wbs_dat_o[8]
*245 wbs_dat_o[9]
*246 wbs_sel_i[0]
*247 wbs_sel_i[1]
*248 wbs_sel_i[2]
*249 wbs_sel_i[3]
*250 wbs_stb_i
*251 wbs_we_i
*252 x1\[0\]
*253 x1\[10\]
*254 x1\[11\]
*255 x1\[12\]
*256 x1\[13\]
*257 x1\[14\]
*258 x1\[15\]
*259 x1\[1\]
*260 x1\[2\]
*261 x1\[3\]
*262 x1\[4\]
*263 x1\[5\]
*264 x1\[6\]
*265 x1\[7\]
*266 x1\[8\]
*267 x1\[9\]
*268 x2\[0\]
*269 x2\[10\]
*270 x2\[11\]
*271 x2\[12\]
*272 x2\[13\]
*273 x2\[14\]
*274 x2\[15\]
*275 x2\[1\]
*276 x2\[2\]
*277 x2\[3\]
*278 x2\[4\]
*279 x2\[5\]
*280 x2\[6\]
*281 x2\[7\]
*282 x2\[8\]
*283 x2\[9\]
*284 x3\[0\]
*285 x3\[10\]
*286 x3\[11\]
*287 x3\[12\]
*288 x3\[13\]
*289 x3\[14\]
*290 x3\[15\]
*291 x3\[1\]
*292 x3\[2\]
*293 x3\[3\]
*294 x3\[4\]
*295 x3\[5\]
*296 x3\[6\]
*297 x3\[7\]
*298 x3\[8\]
*299 x3\[9\]
*300 x4\[0\]
*301 x4\[10\]
*302 x4\[11\]
*303 x4\[12\]
*304 x4\[13\]
*305 x4\[14\]
*306 x4\[15\]
*307 x4\[1\]
*308 x4\[2\]
*309 x4\[3\]
*310 x4\[4\]
*311 x4\[5\]
*312 x4\[6\]
*313 x4\[7\]
*314 x4\[8\]
*315 x4\[9\]
*316 x5\[0\]
*317 x5\[10\]
*318 x5\[11\]
*319 x5\[12\]
*320 x5\[13\]
*321 x5\[14\]
*322 x5\[15\]
*323 x5\[1\]
*324 x5\[2\]
*325 x5\[3\]
*326 x5\[4\]
*327 x5\[5\]
*328 x5\[6\]
*329 x5\[7\]
*330 x5\[8\]
*331 x5\[9\]
*332 mprj1
*333 mprj2
*334 mprj3
*335 mprj4
*336 mprj5
*337 ro1
*338 ro10
*339 ro11
*340 ro12
*341 ro13
*342 ro14
*343 ro15
*344 ro16
*345 ro2
*346 ro3
*347 ro4
*348 ro5
*349 ro6
*350 ro7
*351 ro8
*352 ro9

*PORTS
analog_io[0] I
analog_io[10] I
analog_io[11] I
analog_io[12] I
analog_io[13] I
analog_io[14] I
analog_io[15] I
analog_io[16] I
analog_io[17] I
analog_io[18] I
analog_io[19] I
analog_io[1] I
analog_io[20] I
analog_io[21] I
analog_io[22] I
analog_io[23] I
analog_io[24] I
analog_io[25] I
analog_io[26] I
analog_io[27] I
analog_io[28] I
analog_io[2] I
analog_io[3] I
analog_io[4] I
analog_io[5] I
analog_io[6] I
analog_io[7] I
analog_io[8] I
analog_io[9] I
io_in[0] I
io_in[10] I
io_in[11] I
io_in[12] I
io_in[13] I
io_in[14] I
io_in[15] I
io_in[16] I
io_in[17] I
io_in[18] I
io_in[19] I
io_in[1] I
io_in[20] I
io_in[21] I
io_in[22] I
io_in[23] I
io_in[24] I
io_in[25] I
io_in[26] I
io_in[27] I
io_in[28] I
io_in[29] I
io_in[2] I
io_in[30] I
io_in[31] I
io_in[32] I
io_in[33] I
io_in[34] I
io_in[35] I
io_in[36] I
io_in[37] I
io_in[3] I
io_in[4] I
io_in[5] I
io_in[6] I
io_in[7] I
io_in[8] I
io_in[9] I
io_oeb[0] O
io_oeb[10] O
io_oeb[11] O
io_oeb[12] O
io_oeb[13] O
io_oeb[14] O
io_oeb[15] O
io_oeb[16] O
io_oeb[17] O
io_oeb[18] O
io_oeb[19] O
io_oeb[1] O
io_oeb[20] O
io_oeb[21] O
io_oeb[22] O
io_oeb[23] O
io_oeb[24] O
io_oeb[25] O
io_oeb[26] O
io_oeb[27] O
io_oeb[28] O
io_oeb[29] O
io_oeb[2] O
io_oeb[30] O
io_oeb[31] O
io_oeb[32] O
io_oeb[33] O
io_oeb[34] O
io_oeb[35] O
io_oeb[36] O
io_oeb[37] O
io_oeb[3] O
io_oeb[4] O
io_oeb[5] O
io_oeb[6] O
io_oeb[7] O
io_oeb[8] O
io_oeb[9] O
io_out[0] O
io_out[10] O
io_out[11] O
io_out[12] O
io_out[13] O
io_out[14] O
io_out[15] O
io_out[16] O
io_out[17] O
io_out[18] O
io_out[19] O
io_out[1] O
io_out[20] O
io_out[21] O
io_out[22] O
io_out[23] O
io_out[24] O
io_out[25] O
io_out[26] O
io_out[27] O
io_out[28] O
io_out[29] O
io_out[2] O
io_out[30] O
io_out[31] O
io_out[32] O
io_out[33] O
io_out[34] O
io_out[35] O
io_out[36] O
io_out[37] O
io_out[3] O
io_out[4] O
io_out[5] O
io_out[6] O
io_out[7] O
io_out[8] O
io_out[9] O
wb_clk_i I
wb_rst_i I
wbs_ack_o O
wbs_adr_i[0] I
wbs_adr_i[10] I
wbs_adr_i[11] I
wbs_adr_i[12] I
wbs_adr_i[13] I
wbs_adr_i[14] I
wbs_adr_i[15] I
wbs_adr_i[16] I
wbs_adr_i[17] I
wbs_adr_i[18] I
wbs_adr_i[19] I
wbs_adr_i[1] I
wbs_adr_i[20] I
wbs_adr_i[21] I
wbs_adr_i[22] I
wbs_adr_i[23] I
wbs_adr_i[24] I
wbs_adr_i[25] I
wbs_adr_i[26] I
wbs_adr_i[27] I
wbs_adr_i[28] I
wbs_adr_i[29] I
wbs_adr_i[2] I
wbs_adr_i[30] I
wbs_adr_i[31] I
wbs_adr_i[3] I
wbs_adr_i[4] I
wbs_adr_i[5] I
wbs_adr_i[6] I
wbs_adr_i[7] I
wbs_adr_i[8] I
wbs_adr_i[9] I
wbs_cyc_i I
wbs_dat_i[0] I
wbs_dat_i[10] I
wbs_dat_i[11] I
wbs_dat_i[12] I
wbs_dat_i[13] I
wbs_dat_i[14] I
wbs_dat_i[15] I
wbs_dat_i[16] I
wbs_dat_i[17] I
wbs_dat_i[18] I
wbs_dat_i[19] I
wbs_dat_i[1] I
wbs_dat_i[20] I
wbs_dat_i[21] I
wbs_dat_i[22] I
wbs_dat_i[23] I
wbs_dat_i[24] I
wbs_dat_i[25] I
wbs_dat_i[26] I
wbs_dat_i[27] I
wbs_dat_i[28] I
wbs_dat_i[29] I
wbs_dat_i[2] I
wbs_dat_i[30] I
wbs_dat_i[31] I
wbs_dat_i[3] I
wbs_dat_i[4] I
wbs_dat_i[5] I
wbs_dat_i[6] I
wbs_dat_i[7] I
wbs_dat_i[8] I
wbs_dat_i[9] I
wbs_dat_o[0] O
wbs_dat_o[10] O
wbs_dat_o[11] O
wbs_dat_o[12] O
wbs_dat_o[13] O
wbs_dat_o[14] O
wbs_dat_o[15] O
wbs_dat_o[16] O
wbs_dat_o[17] O
wbs_dat_o[18] O
wbs_dat_o[19] O
wbs_dat_o[1] O
wbs_dat_o[20] O
wbs_dat_o[21] O
wbs_dat_o[22] O
wbs_dat_o[23] O
wbs_dat_o[24] O
wbs_dat_o[25] O
wbs_dat_o[26] O
wbs_dat_o[27] O
wbs_dat_o[28] O
wbs_dat_o[29] O
wbs_dat_o[2] O
wbs_dat_o[30] O
wbs_dat_o[31] O
wbs_dat_o[3] O
wbs_dat_o[4] O
wbs_dat_o[5] O
wbs_dat_o[6] O
wbs_dat_o[7] O
wbs_dat_o[8] O
wbs_dat_o[9] O
wbs_sel_i[0] I
wbs_sel_i[1] I
wbs_sel_i[2] I
wbs_sel_i[3] I
wbs_stb_i I
wbs_we_i I

*D_NET *30 0.41793
*CONN
*P io_in[0] I
*I *344:s1 I *D sky130_osu_ring_oscillator_mpr2ya_8_b0r2
*I *343:s1 I *D sky130_osu_ring_oscillator_mpr2xa_8_b0r2
*I *342:s1 I *D sky130_osu_ring_oscillator_mpr2et_8_b0r2
*I *346:s1 I *D sky130_osu_ring_oscillator_mpr2ca_8_b0r1
*I *337:s1 I *D sky130_osu_ring_oscillator_mpr2aa_8_b0r1
*I *345:s1 I *D sky130_osu_ring_oscillator_mpr2at_8_b0r1
*I *347:s1 I *D sky130_osu_ring_oscillator_mpr2ct_8_b0r1
*I *348:s1 I *D sky130_osu_ring_oscillator_mpr2ea_8_b0r1
*I *349:s1 I *D sky130_osu_ring_oscillator_mpr2et_8_b0r1
*I *350:s1 I *D sky130_osu_ring_oscillator_mpr2xa_8_b0r1
*I *351:s1 I *D sky130_osu_ring_oscillator_mpr2ya_8_b0r1
*I *352:s1 I *D sky130_osu_ring_oscillator_mpr2aa_8_b0r2
*I *338:s1 I *D sky130_osu_ring_oscillator_mpr2at_8_b0r2
*I *339:s1 I *D sky130_osu_ring_oscillator_mpr2ca_8_b0r2
*I *340:s1 I *D sky130_osu_ring_oscillator_mpr2ct_8_b0r2
*I *341:s1 I *D sky130_osu_ring_oscillator_mpr2ea_8_b0r2
*CAP
1 io_in[0] 0.0696971
2 *344:s1 0.000383844
3 *343:s1 5.37136e-05
4 *342:s1 0.000296643
5 *346:s1 0.000657783
6 *337:s1 0.00117608
7 *345:s1 0.000528037
8 *347:s1 8.22243e-06
9 *348:s1 0.000427094
10 *349:s1 0.000526972
11 *350:s1 0.000151778
12 *351:s1 0.000519636
13 *352:s1 0.000895987
14 *338:s1 0.000785622
15 *339:s1 0.000196428
16 *340:s1 0.000191775
17 *341:s1 0.00039087
18 *30:285 0.00506003
19 *30:274 0.00953242
20 *30:272 0.00564618
21 *30:268 0.00118353
22 *30:266 0.00391582
23 *30:264 0.00438538
24 *30:247 0.00168433
25 *30:237 0.00476956
26 *30:235 0.00406193
27 *30:214 0.00380396
28 *30:203 0.00594514
29 *30:201 0.00464895
30 *30:170 0.00293675
31 *30:162 0.00389647
32 *30:160 0.00363202
33 *30:152 0.000821283
34 *30:138 0.00437222
35 *30:136 0.00455477
36 *30:117 0.00473541
37 *30:115 0.00487643
38 *30:87 0.00443491
39 *30:85 0.00540371
40 *30:61 0.00407896
41 *30:50 0.00593735
42 *30:39 0.00635139
43 *30:37 0.00378671
44 *30:31 0.00516954
45 *30:29 0.00461295
46 *30:23 0.000780935
47 *30:19 0.00450527
48 *30:17 0.00448757
49 *30:13 0.00314842
50 *30:9 0.030637
51 *30:7 0.0281425
52 *30:5 0.0696971
53 *337:s1 *337:s2 0
54 *337:s1 *337:start 0
55 *337:s1 *41:349 0
56 *339:s1 *339:s2 0.000112861
57 *339:s1 *339:start 8.66664e-05
58 *340:s1 *340:s2 3.25251e-05
59 *340:s1 *340:start 3.06123e-05
60 *341:s1 *341:s2 8.1195e-05
61 *341:s1 *341:start 9.58689e-05
62 *345:s1 *345:start 9.84729e-05
63 *346:s1 *260:16 0
64 *348:s1 *348:s2 8.6258e-05
65 *348:s1 *348:start 2.12559e-05
66 *349:s1 *349:start 9.58689e-05
67 *30:9 *41:9 0.02726
68 *30:13 *41:21 0.00528064
69 *30:13 *52:21 0.000542292
70 *30:17 *52:21 0.000223428
71 *30:19 *52:23 0
72 *30:29 *343:s2 9.07092e-05
73 *30:39 *41:55 0.000439636
74 *30:39 *41:71 0.00765485
75 *30:39 *41:87 0.00011858
76 *30:50 *41:87 0.00754317
77 *30:50 *41:101 0.000118442
78 *30:61 *41:101 0.00752259
79 *30:61 *41:120 9.18193e-05
80 *30:85 *41:120 0.000215106
81 *30:115 *338:s2 0.00133805
82 *30:117 *41:120 0
83 *30:117 *41:146 0
84 *30:117 *41:148 0
85 *30:138 *265:12 0
86 *30:160 *351:start 0.000141036
87 *30:162 *41:163 0.000192187
88 *30:162 *52:264 0.00384252
89 *30:203 *41:209 0.00237372
90 *30:203 *52:280 0
91 *30:214 *41:209 0.000413958
92 *30:214 *41:235 0.00712973
93 *30:214 *41:250 0.000118442
94 *30:214 *52:280 0
95 *30:214 *52:303 0
96 *30:235 *41:250 0.000337612
97 *30:235 *52:309 0.00107659
98 *30:247 *41:258 0
99 *30:264 *41:258 0.000599174
100 *30:285 *41:349 0
*RES
1 io_in[0] *30:5 215.539 
2 *30:5 *30:7 3.41 
3 *30:7 *30:9 771.804 
4 *30:9 *30:13 14.7715 
5 *30:13 *30:17 4.61007 
6 *30:17 *30:19 86.3393 
7 *30:19 *30:23 4.28577 
8 *30:23 *30:29 4.9375 
9 *30:29 *30:31 85.125 
10 *30:31 *30:37 9.10107 
11 *30:37 *30:39 100.759 
12 *30:39 *341:s1 22.4473 
13 *30:39 *30:50 93.9286 
14 *30:50 *340:s1 17.8312 
15 *30:50 *30:61 93.3214 
16 *30:61 *339:s1 9.65179 
17 *30:61 *30:85 12.2388 
18 *30:85 *30:87 87.5536 
19 *30:87 *338:s1 0.901786 
20 *338:s1 *30:115 24.9117 
21 *30:115 *30:117 84.6696 
22 *30:117 *352:s1 16.4911 
23 *352:s1 *30:136 14.8036 
24 *30:136 *30:138 87.5625 
25 *30:138 *351:s1 2.41071 
26 *351:s1 *30:152 12.7232 
27 *30:152 *30:160 13.1429 
28 *30:160 *30:162 94.0804 
29 *30:162 *30:170 5.49523 
30 *30:170 *350:s1 9.72692 
31 *30:170 *30:201 42.4581 
32 *30:201 *30:203 62.9018 
33 *30:203 *349:s1 24.4429 
34 *30:203 *30:214 93.9286 
35 *30:214 *348:s1 23.2018 
36 *30:214 *30:235 12.7477 
37 *30:235 *30:237 72.9821 
38 *30:237 *30:247 25.2879 
39 *30:247 *347:s1 4.72321 
40 *30:247 *30:264 8.53707 
41 *30:264 *30:266 80.2679 
42 *30:266 *30:268 3.41 
43 *30:268 *30:272 5.11453 
44 *30:272 *30:274 104.705 
45 *30:274 *345:s1 24.6527 
46 *30:274 *30:285 79.9375 
47 *30:285 *337:s1 28 
48 *30:268 *346:s1 13.061 
49 *30:31 *342:s1 6.02232 
50 *30:23 *343:s1 8.3776 
51 *30:13 *344:s1 24.2761 
*END

*D_NET *41 0.436168
*CONN
*P io_in[1] I
*I *344:s2 I *D sky130_osu_ring_oscillator_mpr2ya_8_b0r2
*I *351:s2 I *D sky130_osu_ring_oscillator_mpr2ya_8_b0r1
*I *337:s2 I *D sky130_osu_ring_oscillator_mpr2aa_8_b0r1
*I *345:s2 I *D sky130_osu_ring_oscillator_mpr2at_8_b0r1
*I *346:s2 I *D sky130_osu_ring_oscillator_mpr2ca_8_b0r1
*I *347:s2 I *D sky130_osu_ring_oscillator_mpr2ct_8_b0r1
*I *348:s2 I *D sky130_osu_ring_oscillator_mpr2ea_8_b0r1
*I *349:s2 I *D sky130_osu_ring_oscillator_mpr2et_8_b0r1
*I *350:s2 I *D sky130_osu_ring_oscillator_mpr2xa_8_b0r1
*I *352:s2 I *D sky130_osu_ring_oscillator_mpr2aa_8_b0r2
*I *338:s2 I *D sky130_osu_ring_oscillator_mpr2at_8_b0r2
*I *339:s2 I *D sky130_osu_ring_oscillator_mpr2ca_8_b0r2
*I *340:s2 I *D sky130_osu_ring_oscillator_mpr2ct_8_b0r2
*I *341:s2 I *D sky130_osu_ring_oscillator_mpr2ea_8_b0r2
*I *342:s2 I *D sky130_osu_ring_oscillator_mpr2et_8_b0r2
*I *343:s2 I *D sky130_osu_ring_oscillator_mpr2xa_8_b0r2
*CAP
1 io_in[1] 0.0696651
2 *344:s2 0.000528003
3 *351:s2 0.000613641
4 *337:s2 0.00170734
5 *345:s2 0.000352775
6 *346:s2 0.000460387
7 *347:s2 0.000318363
8 *348:s2 0.00113566
9 *349:s2 0.00162985
10 *350:s2 0.00222404
11 *352:s2 0.00120752
12 *338:s2 0.00185903
13 *339:s2 0.0010038
14 *340:s2 0.000961263
15 *341:s2 0.00114277
16 *342:s2 0.00138447
17 *343:s2 0.00122289
18 *41:349 0.00530322
19 *41:347 0.00547436
20 *41:318 0.00200314
21 *41:308 0.00443451
22 *41:306 0.00454116
23 *41:282 0.00430199
24 *41:280 0.0047509
25 *41:258 0.00381861
26 *41:250 0.00580487
27 *41:235 0.00668744
28 *41:209 0.00658702
29 *41:201 0.00537396
30 *41:199 0.00353735
31 *41:171 0.00474819
32 *41:169 0.00297209
33 *41:167 0.00192764
34 *41:163 0.00608156
35 *41:148 0.00994995
36 *41:146 0.00428077
37 *41:120 0.00701721
38 *41:101 0.00873038
39 *41:87 0.00673824
40 *41:71 0.00694848
41 *41:55 0.00635704
42 *41:53 0.0042097
43 *41:27 0.00607984
44 *41:25 0.00358972
45 *41:21 0.00262755
46 *41:9 0.0142274
47 *41:7 0.0130008
48 *41:5 0.0696651
49 *339:s2 *339:start 3.99702e-05
50 *340:s2 *340:start 2.85321e-05
51 *341:s2 *341:start 1.29975e-05
52 *342:s2 *342:start 4.83019e-06
53 *343:s2 *52:29 0.00292919
54 *348:s2 *348:start 5.50052e-05
55 *349:s2 *349:s3 0.00199543
56 *350:s2 *280:8 0
57 *352:s2 *352:start 5.23822e-05
58 *41:9 *52:9 0.0191225
59 *41:21 *52:13 0.00393972
60 *41:21 *52:21 0.000928206
61 *41:25 *52:21 0.00142552
62 *41:27 *52:23 0.0072374
63 *41:53 *52:23 5.7986e-05
64 *41:250 *52:303 0
65 *337:s1 *337:s2 0
66 *337:s1 *41:349 0
67 *339:s1 *339:s2 0.000112861
68 *340:s1 *340:s2 3.25251e-05
69 *341:s1 *341:s2 8.1195e-05
70 *348:s1 *348:s2 8.6258e-05
71 *30:9 *41:9 0.02726
72 *30:13 *41:21 0.00528064
73 *30:29 *343:s2 9.07092e-05
74 *30:39 *41:55 0.000439636
75 *30:39 *41:71 0.00765485
76 *30:39 *41:87 0.00011858
77 *30:50 *41:87 0.00754317
78 *30:50 *41:101 0.000118442
79 *30:61 *41:101 0.00752259
80 *30:61 *41:120 9.18193e-05
81 *30:85 *41:120 0.000215106
82 *30:115 *338:s2 0.00133805
83 *30:117 *41:120 0
84 *30:117 *41:146 0
85 *30:117 *41:148 0
86 *30:162 *41:163 0.000192187
87 *30:203 *41:209 0.00237372
88 *30:214 *41:209 0.000413958
89 *30:214 *41:235 0.00712973
90 *30:214 *41:250 0.000118442
91 *30:235 *41:250 0.000337612
92 *30:247 *41:258 0
93 *30:264 *41:258 0.000599174
94 *30:285 *41:349 0
*RES
1 io_in[1] *41:5 215.395 
2 *41:5 *41:7 3.41 
3 *41:7 *41:9 595.125 
4 *41:9 *41:21 22.7813 
5 *41:21 *41:25 7.3486 
6 *41:25 *41:27 88.7679 
7 *41:27 *343:s2 27.6617 
8 *41:27 *41:53 44.0893 
9 *41:53 *41:55 44.3839 
10 *41:55 *342:s2 32.1607 
11 *41:55 *41:71 93.9286 
12 *41:71 *341:s2 28.1696 
13 *41:71 *41:87 93.9286 
14 *41:87 *340:s2 24.1875 
15 *41:87 *41:101 93.625 
16 *41:101 *339:s2 25.8304 
17 *41:101 *41:120 100.455 
18 *41:120 *338:s2 29.015 
19 *41:120 *41:146 6.21429 
20 *41:146 *41:148 81.8482 
21 *41:148 *352:s2 37.375 
22 *41:148 *41:163 98.0268 
23 *41:163 *41:167 7.27653 
24 *41:167 *41:169 3.41 
25 *41:169 *41:171 60.8393 
26 *41:171 *350:s2 37.3823 
27 *350:s2 *41:199 11.2589 
28 *41:199 *41:201 63.2679 
29 *41:201 *41:209 44.7395 
30 *41:209 *349:s2 24.6348 
31 *41:209 *41:235 87.4018 
32 *41:235 *348:s2 37.4741 
33 *41:235 *41:250 60.6875 
34 *41:250 *41:258 45.4152 
35 *41:258 *347:s2 11.109 
36 *41:258 *41:280 5.00643 
37 *41:280 *41:282 85.7321 
38 *41:282 *346:s2 2.65625 
39 *346:s2 *41:306 9.01083 
40 *41:306 *41:308 86.3393 
41 *41:308 *345:s2 5.22768 
42 *345:s2 *41:318 3.00446 
43 *41:318 *41:347 43.4946 
44 *41:347 *41:349 74.0179 
45 *41:349 *337:s2 47.5089 
46 *41:167 *351:s2 8.41014 
47 *41:21 *344:s2 27.4332 
*END

*D_NET *52 0.481229
*CONN
*P io_in[2] I
*I *344:s3 I *D sky130_osu_ring_oscillator_mpr2ya_8_b0r2
*I *350:s3 I *D sky130_osu_ring_oscillator_mpr2xa_8_b0r1
*I *337:s3 I *D sky130_osu_ring_oscillator_mpr2aa_8_b0r1
*I *345:s3 I *D sky130_osu_ring_oscillator_mpr2at_8_b0r1
*I *346:s3 I *D sky130_osu_ring_oscillator_mpr2ca_8_b0r1
*I *347:s3 I *D sky130_osu_ring_oscillator_mpr2ct_8_b0r1
*I *348:s3 I *D sky130_osu_ring_oscillator_mpr2ea_8_b0r1
*I *349:s3 I *D sky130_osu_ring_oscillator_mpr2et_8_b0r1
*I *351:s3 I *D sky130_osu_ring_oscillator_mpr2ya_8_b0r1
*I *352:s3 I *D sky130_osu_ring_oscillator_mpr2aa_8_b0r2
*I *338:s3 I *D sky130_osu_ring_oscillator_mpr2at_8_b0r2
*I *339:s3 I *D sky130_osu_ring_oscillator_mpr2ca_8_b0r2
*I *340:s3 I *D sky130_osu_ring_oscillator_mpr2ct_8_b0r2
*I *341:s3 I *D sky130_osu_ring_oscillator_mpr2ea_8_b0r2
*I *342:s3 I *D sky130_osu_ring_oscillator_mpr2et_8_b0r2
*I *343:s3 I *D sky130_osu_ring_oscillator_mpr2xa_8_b0r2
*CAP
1 io_in[2] 0.0744559
2 *344:s3 0.000436225
3 *350:s3 0.000636386
4 *337:s3 0.00238784
5 *345:s3 3.30906e-05
6 *346:s3 0.000616606
7 *347:s3 0.00247261
8 *348:s3 0.000395154
9 *349:s3 0.00272271
10 *351:s3 0.000444886
11 *352:s3 0.00159653
12 *338:s3 0.00176547
13 *339:s3 0.00197158
14 *340:s3 0.00204427
15 *341:s3 0.00254119
16 *342:s3 0.00215596
17 *343:s3 0.000358593
18 *52:434 0.00707291
19 *52:432 0.00710827
20 *52:399 0.00259279
21 *52:393 0.00417763
22 *52:376 0.00617066
23 *52:370 0.00335881
24 *52:368 0.00408193
25 *52:341 0.00600495
26 *52:339 0.00362727
27 *52:333 0.00512506
28 *52:309 0.00560458
29 *52:303 0.00691875
30 *52:280 0.0102124
31 *52:272 0.00672815
32 *52:270 0.0037419
33 *52:268 0.00256358
34 *52:264 0.00503219
35 *52:262 0.00517529
36 *52:237 0.00470811
37 *52:231 0.00413941
38 *52:229 0.00396836
39 *52:209 0.00633668
40 *52:183 0.00499553
41 *52:175 0.00505139
42 *52:173 0.00488485
43 *52:150 0.00251251
44 *52:144 0.00170322
45 *52:142 0.00150753
46 *52:121 0.00224275
47 *52:117 0.00480846
48 *52:115 0.00487149
49 *52:89 0.0028027
50 *52:87 0.00291354
51 *52:85 0.00291354
52 *52:61 0.00291805
53 *52:57 0.0052207
54 *52:55 0.00745975
55 *52:29 0.00495389
56 *52:23 0.00440423
57 *52:21 0.00414506
58 *52:13 0.00269112
59 *52:9 0.0146754
60 *52:7 0.0137555
61 *52:5 0.0744559
62 *338:s3 *338:s4 0.00124425
63 *339:s3 *339:s4 0.00217866
64 *340:s3 *340:s4 0.00170601
65 *340:s3 *62:151 0
66 *342:s3 *61:119 0.000238605
67 *342:s3 *62:116 0.000637288
68 *347:s3 *347:s4 0.00189116
69 *352:s3 *352:s4 0
70 *352:s3 *352:s5 0.000263395
71 *352:s3 *61:281 0
72 *52:13 *61:13 0.00217878
73 *52:57 *257:22 0
74 *52:57 *272:14 0.000903954
75 *52:57 *273:14 0
76 *52:61 *61:119 7.88487e-06
77 *52:61 *62:116 0.000266973
78 *52:87 *61:121 0.00696435
79 *52:87 *62:130 0.000293624
80 *52:117 *61:121 0
81 *52:117 *61:157 0
82 *52:117 *61:171 0
83 *52:121 *340:s4 6.90187e-05
84 *52:144 *61:171 5.59239e-05
85 *52:144 *61:192 0.0048752
86 *52:144 *61:198 0.00102257
87 *52:144 *62:153 0.00335668
88 *52:144 *62:157 0.000746408
89 *52:144 *62:175 0.000239866
90 *52:150 *61:198 0.000544673
91 *52:150 *62:175 0.000232826
92 *52:150 *62:177 0
93 *52:173 *61:227 0
94 *52:175 *338:s5 0
95 *52:175 *256:18 0
96 *52:175 *313:18 0
97 *52:183 *338:s4 0
98 *52:183 *61:237 0.00124535
99 *52:209 *61:237 5.59239e-05
100 *52:209 *61:263 0.00671658
101 *52:209 *61:281 0.000240218
102 *52:229 *352:s5 7.04026e-05
103 *52:229 *61:281 0.00017827
104 *52:229 *61:283 0.00151572
105 *52:229 *295:18 0
106 *52:229 *296:14 0
107 *52:231 *61:283 0.00196374
108 *52:231 *61:291 0.000534561
109 *52:231 *62:243 0
110 *52:231 *295:18 0
111 *52:237 *351:s4 0
112 *52:272 *279:12 0
113 *52:341 *61:404 0.00329226
114 *52:368 *61:429 0
115 *52:370 *61:429 0.00211493
116 *52:370 *61:456 2.69575e-05
117 *52:376 *346:s4 0.00221946
118 *52:432 *61:478 0.000400425
119 *52:432 *291:12 4.37633e-05
120 *52:434 *61:480 0
121 *52:434 *62:371 0
122 *343:s2 *52:29 0.00292919
123 *349:s2 *349:s3 0.00199543
124 *30:13 *52:21 0.000542292
125 *30:17 *52:21 0.000223428
126 *30:19 *52:23 0
127 *30:162 *52:264 0.00384252
128 *30:203 *52:280 0
129 *30:214 *52:280 0
130 *30:214 *52:303 0
131 *30:235 *52:309 0.00107659
132 *41:9 *52:9 0.0191225
133 *41:21 *52:13 0.00393972
134 *41:21 *52:21 0.000928206
135 *41:25 *52:21 0.00142552
136 *41:27 *52:23 0.0072374
137 *41:53 *52:23 5.7986e-05
138 *41:250 *52:303 0
*RES
1 io_in[2] *52:5 215.251 
2 *52:5 *52:7 3.41 
3 *52:7 *52:9 417.839 
4 *52:9 *52:13 9.7268 
5 *52:13 *52:21 10.7545 
6 *52:21 *52:23 90.5893 
7 *52:23 *52:29 13.8575 
8 *52:29 *343:s3 16.2455 
9 *52:29 *52:55 17.5335 
10 *52:55 *52:57 99.0893 
11 *52:57 *52:61 5.619 
12 *52:61 *342:s3 28.0774 
13 *52:61 *52:85 3.41 
14 *52:85 *52:87 89.9821 
15 *52:87 *52:89 3.41 
16 *52:89 *341:s3 25.3722 
17 *52:89 *52:115 4.03353 
18 *52:115 *52:117 92.4107 
19 *52:117 *52:121 3.96147 
20 *52:121 *340:s3 21.5007 
21 *52:121 *52:142 3.41 
22 *52:142 *52:144 85.7321 
23 *52:144 *52:150 10.7493 
24 *52:150 *339:s3 20.5614 
25 *52:150 *52:173 4.39387 
26 *52:173 *52:175 92.4107 
27 *52:175 *52:183 11.6852 
28 *52:183 *338:s3 29.7478 
29 *52:183 *52:209 86.1875 
30 *52:209 *352:s3 37.8482 
31 *52:209 *52:229 49.4018 
32 *52:229 *52:231 55.8393 
33 *52:231 *52:237 13.4971 
34 *52:237 *351:s3 22.9875 
35 *52:237 *52:262 15.4021 
36 *52:262 *52:264 89.9821 
37 *52:264 *52:268 9.36647 
38 *52:268 *52:270 3.41 
39 *52:270 *52:272 76.625 
40 *52:272 *52:280 30.5501 
41 *52:280 *349:s3 33.4796 
42 *52:280 *52:303 92.4107 
43 *52:303 *52:309 15.0105 
44 *52:309 *348:s3 12.5631 
45 *52:309 *52:333 57.1964 
46 *52:333 *52:339 13.4251 
47 *52:339 *52:341 40.8036 
48 *52:341 *347:s3 27.8429 
49 *52:341 *52:368 45.1429 
50 *52:368 *52:370 50.1786 
51 *52:370 *52:376 12.5603 
52 *52:376 *346:s3 13.9361 
53 *52:376 *52:393 80.1161 
54 *52:393 *52:399 7.19643 
55 *52:399 *345:s3 10.2509 
56 *52:399 *52:432 41.6547 
57 *52:432 *52:434 93.625 
58 *52:434 *337:s3 24.7395 
59 *52:268 *350:s3 22.2701 
60 *52:13 *344:s3 20.8743 
*END

*D_NET *61 0.409461
*CONN
*P io_in[3] I
*I *337:s4 I *D sky130_osu_ring_oscillator_mpr2aa_8_b0r1
*I *345:s4 I *D sky130_osu_ring_oscillator_mpr2at_8_b0r1
*I *346:s4 I *D sky130_osu_ring_oscillator_mpr2ca_8_b0r1
*I *347:s4 I *D sky130_osu_ring_oscillator_mpr2ct_8_b0r1
*I *348:s4 I *D sky130_osu_ring_oscillator_mpr2ea_8_b0r1
*I *349:s4 I *D sky130_osu_ring_oscillator_mpr2et_8_b0r1
*I *350:s4 I *D sky130_osu_ring_oscillator_mpr2xa_8_b0r1
*I *351:s4 I *D sky130_osu_ring_oscillator_mpr2ya_8_b0r1
*I *352:s4 I *D sky130_osu_ring_oscillator_mpr2aa_8_b0r2
*I *338:s4 I *D sky130_osu_ring_oscillator_mpr2at_8_b0r2
*I *339:s4 I *D sky130_osu_ring_oscillator_mpr2ca_8_b0r2
*I *340:s4 I *D sky130_osu_ring_oscillator_mpr2ct_8_b0r2
*I *341:s4 I *D sky130_osu_ring_oscillator_mpr2ea_8_b0r2
*I *342:s4 I *D sky130_osu_ring_oscillator_mpr2et_8_b0r2
*I *343:s4 I *D sky130_osu_ring_oscillator_mpr2xa_8_b0r2
*I *344:s4 I *D sky130_osu_ring_oscillator_mpr2ya_8_b0r2
*CAP
1 io_in[3] 0.0553757
2 *337:s4 0.000961741
3 *345:s4 0.001037
4 *346:s4 0.0011171
5 *347:s4 0.00113281
6 *348:s4 0.00175086
7 *349:s4 0.00130676
8 *350:s4 0.00441833
9 *351:s4 0.000579855
10 *352:s4 0.000983155
11 *338:s4 0.000880555
12 *339:s4 0.00102442
13 *340:s4 0.00112173
14 *341:s4 0.00177139
15 *342:s4 0.00228209
16 *343:s4 0.000504768
17 *344:s4 0.000665994
18 *61:495 4.77204e-06
19 *61:480 0.00517955
20 *61:478 0.00523685
21 *61:458 0.00586865
22 *61:456 0.00436674
23 *61:429 0.00535448
24 *61:408 0.00500518
25 *61:404 0.00370185
26 *61:402 0.00384551
27 *61:370 0.00520255
28 *61:368 0.00432319
29 *61:348 0.00648773
30 *61:346 0.00686899
31 *61:315 0.00481517
32 *61:313 0.00329391
33 *61:291 0.00156028
34 *61:283 0.00286212
35 *61:281 0.00218087
36 *61:263 0.00383351
37 *61:237 0.00438976
38 *61:229 0.00386452
39 *61:227 0.00408347
40 *61:198 0.00346146
41 *61:192 0.00325455
42 *61:171 0.00535566
43 *61:157 0.00303858
44 *61:131 0.00332277
45 *61:121 0.00689434
46 *61:119 0.00613264
47 *61:87 3.17547e-06
48 *61:73 0.0045776
49 *61:71 0.00448326
50 *61:41 0.00463405
51 *61:39 0.00381008
52 *61:15 0.000942547
53 *61:13 0.00949515
54 *61:11 0.00949515
55 *61:9 0.0117108
56 *61:7 0.0117108
57 *61:5 0.0553757
58 *337:s4 *337:s5 0
59 *342:s4 *304:8 0
60 *343:s4 *305:8 0
61 *345:s4 *307:12 2.85465e-05
62 *345:s4 *323:8 8.28756e-05
63 *350:s4 *312:8 0
64 *352:s4 *352:s5 0
65 *61:13 *344:s5 0.00044982
66 *61:13 *62:13 0.0288382
67 *61:41 *305:8 0.000299937
68 *61:71 *305:8 7.96066e-05
69 *61:121 *62:130 0
70 *61:157 *62:130 0
71 *61:171 *62:130 0
72 *61:171 *62:151 8.9436e-05
73 *61:171 *62:153 0.000154294
74 *61:227 *62:177 0
75 *61:229 *323:10 0
76 *61:229 *330:11 0.00395636
77 *61:281 *352:s5 0.000227272
78 *61:283 *62:217 0.00309263
79 *61:283 *62:225 0.00150592
80 *61:291 *62:225 0.000232689
81 *61:291 *62:241 0.000239607
82 *61:346 *62:275 0
83 *61:348 *254:14 0
84 *61:348 *323:10 0
85 *61:368 *62:281 0
86 *61:368 *254:14 0
87 *61:368 *323:10 0
88 *61:370 *62:291 0.0068838
89 *61:370 *62:301 0.00115322
90 *61:402 *62:301 0.000470168
91 *61:404 *62:301 0
92 *61:404 *62:331 0
93 *61:404 *62:333 0
94 *61:408 *62:333 0
95 *61:429 *62:333 0
96 *61:429 *62:349 0.000982309
97 *61:429 *62:351 2.46781e-05
98 *61:456 *62:351 0.000245686
99 *61:478 *62:371 0
100 *338:s3 *338:s4 0.00124425
101 *339:s3 *339:s4 0.00217866
102 *340:s3 *340:s4 0.00170601
103 *342:s3 *61:119 0.000238605
104 *347:s3 *347:s4 0.00189116
105 *352:s3 *352:s4 0
106 *352:s3 *61:281 0
107 *52:13 *61:13 0.00217878
108 *52:61 *61:119 7.88487e-06
109 *52:87 *61:121 0.00696435
110 *52:117 *61:121 0
111 *52:117 *61:157 0
112 *52:117 *61:171 0
113 *52:121 *340:s4 6.90187e-05
114 *52:144 *61:171 5.59239e-05
115 *52:144 *61:192 0.0048752
116 *52:144 *61:198 0.00102257
117 *52:150 *61:198 0.000544673
118 *52:173 *61:227 0
119 *52:183 *338:s4 0
120 *52:183 *61:237 0.00124535
121 *52:209 *61:237 5.59239e-05
122 *52:209 *61:263 0.00671658
123 *52:209 *61:281 0.000240218
124 *52:229 *61:281 0.00017827
125 *52:229 *61:283 0.00151572
126 *52:231 *61:283 0.00196374
127 *52:231 *61:291 0.000534561
128 *52:237 *351:s4 0
129 *52:341 *61:404 0.00329226
130 *52:368 *61:429 0
131 *52:370 *61:429 0.00211493
132 *52:370 *61:456 2.69575e-05
133 *52:376 *346:s4 0.00221946
134 *52:432 *61:478 0.000400425
135 *52:434 *61:480 0
*RES
1 io_in[3] *61:5 171.218 
2 *61:5 *61:7 3.41 
3 *61:7 *61:9 240.554 
4 *61:9 *61:11 3.41 
5 *61:11 *61:13 47.3948 
6 *61:13 *61:15 3.41 
7 *61:15 *344:s4 21.5357 
8 *61:15 *61:39 5.58929 
9 *61:39 *61:41 74.3393 
10 *61:41 *343:s4 12.3504 
11 *61:41 *61:71 21.9464 
12 *61:71 *61:73 79.1607 
13 *61:73 *342:s4 14.6317 
14 *342:s4 *61:87 0.269231 
15 *342:s4 *61:119 34.6654 
16 *61:119 *61:121 120.339 
17 *61:121 *61:131 20.0398 
18 *61:131 *341:s4 40.6881 
19 *61:121 *61:157 16.1786 
20 *61:157 *61:171 49.7634 
21 *61:171 *340:s4 22.7731 
22 *61:171 *61:192 60.875 
23 *61:192 *61:198 33.5536 
24 *61:198 *339:s4 21.9082 
25 *61:198 *61:227 14.6183 
26 *61:227 *61:229 86.9464 
27 *61:229 *61:237 12.6942 
28 *61:237 *338:s4 27.6298 
29 *61:237 *61:263 82.5446 
30 *61:263 *352:s4 23.8839 
31 *61:263 *61:281 17.2857 
32 *61:281 *61:283 87.5625 
33 *61:283 *61:291 13.0138 
34 *61:291 *351:s4 7.50259 
35 *61:291 *61:313 3.41 
36 *61:313 *61:315 67.5179 
37 *61:315 *350:s4 30.9282 
38 *350:s4 *61:346 33.5781 
39 *61:346 *61:348 80.4196 
40 *61:348 *349:s4 29.5089 
41 *61:348 *61:368 16.2879 
42 *61:368 *61:370 98.4821 