*SPEF "ieee 1481-1999"
*DESIGN "user_project_wrapper"
*DATE "11:11:11 Fri 11 11, 1111"
*VENDOR "OpenRCX"
*PROGRAM "Parallel Extraction"
*VERSION "1.0"
*DESIGN_FLOW "NAME_SCOPE LOCAL" "PIN_CAP NONE"
*DIVIDER /
*DELIMITER :
*BUS_DELIMITER []
*T_UNIT 1 NS
*C_UNIT 1 PF
*R_UNIT 1 OHM
*L_UNIT 1 HENRY

*NAME_MAP
*1 analog_io[0]
*2 analog_io[10]
*3 analog_io[11]
*4 analog_io[12]
*5 analog_io[13]
*6 analog_io[14]
*7 analog_io[15]
*8 analog_io[16]
*9 analog_io[17]
*10 analog_io[18]
*11 analog_io[19]
*12 analog_io[1]
*13 analog_io[20]
*14 analog_io[21]
*15 analog_io[22]
*16 analog_io[23]
*17 analog_io[24]
*18 analog_io[25]
*19 analog_io[26]
*20 analog_io[27]
*21 analog_io[28]
*22 analog_io[2]
*23 analog_io[3]
*24 analog_io[4]
*25 analog_io[5]
*26 analog_io[6]
*27 analog_io[7]
*28 analog_io[8]
*29 analog_io[9]
*30 io_in[0]
*31 io_in[10]
*32 io_in[11]
*33 io_in[12]
*34 io_in[13]
*35 io_in[14]
*36 io_in[15]
*37 io_in[16]
*38 io_in[17]
*39 io_in[18]
*40 io_in[19]
*41 io_in[1]
*42 io_in[20]
*43 io_in[21]
*44 io_in[22]
*45 io_in[23]
*46 io_in[24]
*47 io_in[25]
*48 io_in[26]
*49 io_in[27]
*50 io_in[28]
*51 io_in[29]
*52 io_in[2]
*53 io_in[30]
*54 io_in[31]
*55 io_in[32]
*56 io_in[33]
*57 io_in[34]
*58 io_in[35]
*59 io_in[36]
*60 io_in[37]
*61 io_in[3]
*62 io_in[4]
*63 io_in[5]
*64 io_in[6]
*65 io_in[7]
*66 io_in[8]
*67 io_in[9]
*68 io_oeb[0]
*69 io_oeb[10]
*70 io_oeb[11]
*71 io_oeb[12]
*72 io_oeb[13]
*73 io_oeb[14]
*74 io_oeb[15]
*75 io_oeb[16]
*76 io_oeb[17]
*77 io_oeb[18]
*78 io_oeb[19]
*79 io_oeb[1]
*80 io_oeb[20]
*81 io_oeb[21]
*82 io_oeb[22]
*83 io_oeb[23]
*84 io_oeb[24]
*85 io_oeb[25]
*86 io_oeb[26]
*87 io_oeb[27]
*88 io_oeb[28]
*89 io_oeb[29]
*90 io_oeb[2]
*91 io_oeb[30]
*92 io_oeb[31]
*93 io_oeb[32]
*94 io_oeb[33]
*95 io_oeb[34]
*96 io_oeb[35]
*97 io_oeb[36]
*98 io_oeb[37]
*99 io_oeb[3]
*100 io_oeb[4]
*101 io_oeb[5]
*102 io_oeb[6]
*103 io_oeb[7]
*104 io_oeb[8]
*105 io_oeb[9]
*106 io_out[0]
*107 io_out[10]
*108 io_out[11]
*109 io_out[12]
*110 io_out[13]
*111 io_out[14]
*112 io_out[15]
*113 io_out[16]
*114 io_out[17]
*115 io_out[18]
*116 io_out[19]
*117 io_out[1]
*118 io_out[20]
*119 io_out[21]
*120 io_out[22]
*121 io_out[23]
*122 io_out[24]
*123 io_out[25]
*124 io_out[26]
*125 io_out[27]
*126 io_out[28]
*127 io_out[29]
*128 io_out[2]
*129 io_out[30]
*130 io_out[31]
*131 io_out[32]
*132 io_out[33]
*133 io_out[34]
*134 io_out[35]
*135 io_out[36]
*136 io_out[37]
*137 io_out[3]
*138 io_out[4]
*139 io_out[5]
*140 io_out[6]
*141 io_out[7]
*142 io_out[8]
*143 io_out[9]
*146 wb_clk_i
*147 wb_rst_i
*148 wbs_ack_o
*149 wbs_adr_i[0]
*150 wbs_adr_i[10]
*151 wbs_adr_i[11]
*152 wbs_adr_i[12]
*153 wbs_adr_i[13]
*154 wbs_adr_i[14]
*155 wbs_adr_i[15]
*156 wbs_adr_i[16]
*157 wbs_adr_i[17]
*158 wbs_adr_i[18]
*159 wbs_adr_i[19]
*160 wbs_adr_i[1]
*161 wbs_adr_i[20]
*162 wbs_adr_i[21]
*163 wbs_adr_i[22]
*164 wbs_adr_i[23]
*165 wbs_adr_i[24]
*166 wbs_adr_i[25]
*167 wbs_adr_i[26]
*168 wbs_adr_i[27]
*169 wbs_adr_i[28]
*170 wbs_adr_i[29]
*171 wbs_adr_i[2]
*172 wbs_adr_i[30]
*173 wbs_adr_i[31]
*174 wbs_adr_i[3]
*175 wbs_adr_i[4]
*176 wbs_adr_i[5]
*177 wbs_adr_i[6]
*178 wbs_adr_i[7]
*179 wbs_adr_i[8]
*180 wbs_adr_i[9]
*181 wbs_cyc_i
*182 wbs_dat_i[0]
*183 wbs_dat_i[10]
*184 wbs_dat_i[11]
*185 wbs_dat_i[12]
*186 wbs_dat_i[13]
*187 wbs_dat_i[14]
*188 wbs_dat_i[15]
*189 wbs_dat_i[16]
*190 wbs_dat_i[17]
*191 wbs_dat_i[18]
*192 wbs_dat_i[19]
*193 wbs_dat_i[1]
*194 wbs_dat_i[20]
*195 wbs_dat_i[21]
*196 wbs_dat_i[22]
*197 wbs_dat_i[23]
*198 wbs_dat_i[24]
*199 wbs_dat_i[25]
*200 wbs_dat_i[26]
*201 wbs_dat_i[27]
*202 wbs_dat_i[28]
*203 wbs_dat_i[29]
*204 wbs_dat_i[2]
*205 wbs_dat_i[30]
*206 wbs_dat_i[31]
*207 wbs_dat_i[3]
*208 wbs_dat_i[4]
*209 wbs_dat_i[5]
*210 wbs_dat_i[6]
*211 wbs_dat_i[7]
*212 wbs_dat_i[8]
*213 wbs_dat_i[9]
*214 wbs_dat_o[0]
*215 wbs_dat_o[10]
*216 wbs_dat_o[11]
*217 wbs_dat_o[12]
*218 wbs_dat_o[13]
*219 wbs_dat_o[14]
*220 wbs_dat_o[15]
*221 wbs_dat_o[16]
*222 wbs_dat_o[17]
*223 wbs_dat_o[18]
*224 wbs_dat_o[19]
*225 wbs_dat_o[1]
*226 wbs_dat_o[20]
*227 wbs_dat_o[21]
*228 wbs_dat_o[22]
*229 wbs_dat_o[23]
*230 wbs_dat_o[24]
*231 wbs_dat_o[25]
*232 wbs_dat_o[26]
*233 wbs_dat_o[27]
*234 wbs_dat_o[28]
*235 wbs_dat_o[29]
*236 wbs_dat_o[2]
*237 wbs_dat_o[30]
*238 wbs_dat_o[31]
*239 wbs_dat_o[3]
*240 wbs_dat_o[4]
*241 wbs_dat_o[5]
*242 wbs_dat_o[6]
*243 wbs_dat_o[7]
*244 wbs_dat_o[8]
*245 wbs_dat_o[9]
*246 wbs_sel_i[0]
*247 wbs_sel_i[1]
*248 wbs_sel_i[2]
*249 wbs_sel_i[3]
*250 wbs_stb_i
*251 wbs_we_i
*252 x1\[0\]
*253 x1\[10\]
*254 x1\[11\]
*255 x1\[12\]
*256 x1\[13\]
*257 x1\[14\]
*258 x1\[15\]
*259 x1\[1\]
*260 x1\[2\]
*261 x1\[3\]
*262 x1\[4\]
*263 x1\[5\]
*264 x1\[6\]
*265 x1\[7\]
*266 x1\[8\]
*267 x1\[9\]
*268 x2\[0\]
*269 x2\[10\]
*270 x2\[11\]
*271 x2\[12\]
*272 x2\[13\]
*273 x2\[14\]
*274 x2\[15\]
*275 x2\[1\]
*276 x2\[2\]
*277 x2\[3\]
*278 x2\[4\]
*279 x2\[5\]
*280 x2\[6\]
*281 x2\[7\]
*282 x2\[8\]
*283 x2\[9\]
*284 x3\[0\]
*285 x3\[10\]
*286 x3\[11\]
*287 x3\[12\]
*288 x3\[13\]
*289 x3\[14\]
*290 x3\[15\]
*291 x3\[1\]
*292 x3\[2\]
*293 x3\[3\]
*294 x3\[4\]
*295 x3\[5\]
*296 x3\[6\]
*297 x3\[7\]
*298 x3\[8\]
*299 x3\[9\]
*300 x4\[0\]
*301 x4\[10\]
*302 x4\[11\]
*303 x4\[12\]
*304 x4\[13\]
*305 x4\[14\]
*306 x4\[15\]
*307 x4\[1\]
*308 x4\[2\]
*309 x4\[3\]
*310 x4\[4\]
*311 x4\[5\]
*312 x4\[6\]
*313 x4\[7\]
*314 x4\[8\]
*315 x4\[9\]
*316 x5\[0\]
*317 x5\[10\]
*318 x5\[11\]
*319 x5\[12\]
*320 x5\[13\]
*321 x5\[14\]
*322 x5\[15\]
*323 x5\[1\]
*324 x5\[2\]
*325 x5\[3\]
*326 x5\[4\]
*327 x5\[5\]
*328 x5\[6\]
*329 x5\[7\]
*330 x5\[8\]
*331 x5\[9\]
*332 mprj1
*333 mprj2
*334 mprj3
*335 mprj4
*336 mprj5
*337 ro1
*338 ro10
*339 ro11
*340 ro12
*341 ro13
*342 ro14
*343 ro15
*344 ro16
*345 ro2
*346 ro3
*347 ro4
*348 ro5
*349 ro6
*350 ro7
*351 ro8
*352 ro9

*PORTS
analog_io[0] I
analog_io[10] I
analog_io[11] I
analog_io[12] I
analog_io[13] I
analog_io[14] I
analog_io[15] I
analog_io[16] I
analog_io[17] I
analog_io[18] I
analog_io[19] I
analog_io[1] I
analog_io[20] I
analog_io[21] I
analog_io[22] I
analog_io[23] I
analog_io[24] I
analog_io[25] I
analog_io[26] I
analog_io[27] I
analog_io[28] I
analog_io[2] I
analog_io[3] I
analog_io[4] I
analog_io[5] I
analog_io[6] I
analog_io[7] I
analog_io[8] I
analog_io[9] I
io_in[0] I
io_in[10] I
io_in[11] I
io_in[12] I
io_in[13] I
io_in[14] I
io_in[15] I
io_in[16] I
io_in[17] I
io_in[18] I
io_in[19] I
io_in[1] I
io_in[20] I
io_in[21] I
io_in[22] I
io_in[23] I
io_in[24] I
io_in[25] I
io_in[26] I
io_in[27] I
io_in[28] I
io_in[29] I
io_in[2] I
io_in[30] I
io_in[31] I
io_in[32] I
io_in[33] I
io_in[34] I
io_in[35] I
io_in[36] I
io_in[37] I
io_in[3] I
io_in[4] I
io_in[5] I
io_in[6] I
io_in[7] I
io_in[8] I
io_in[9] I
io_oeb[0] O
io_oeb[10] O
io_oeb[11] O
io_oeb[12] O
io_oeb[13] O
io_oeb[14] O
io_oeb[15] O
io_oeb[16] O
io_oeb[17] O
io_oeb[18] O
io_oeb[19] O
io_oeb[1] O
io_oeb[20] O
io_oeb[21] O
io_oeb[22] O
io_oeb[23] O
io_oeb[24] O
io_oeb[25] O
io_oeb[26] O
io_oeb[27] O
io_oeb[28] O
io_oeb[29] O
io_oeb[2] O
io_oeb[30] O
io_oeb[31] O
io_oeb[32] O
io_oeb[33] O
io_oeb[34] O
io_oeb[35] O
io_oeb[36] O
io_oeb[37] O
io_oeb[3] O
io_oeb[4] O
io_oeb[5] O
io_oeb[6] O
io_oeb[7] O
io_oeb[8] O
io_oeb[9] O
io_out[0] O
io_out[10] O
io_out[11] O
io_out[12] O
io_out[13] O
io_out[14] O
io_out[15] O
io_out[16] O
io_out[17] O
io_out[18] O
io_out[19] O
io_out[1] O
io_out[20] O
io_out[21] O
io_out[22] O
io_out[23] O
io_out[24] O
io_out[25] O
io_out[26] O
io_out[27] O
io_out[28] O
io_out[29] O
io_out[2] O
io_out[30] O
io_out[31] O
io_out[32] O
io_out[33] O
io_out[34] O
io_out[35] O
io_out[36] O
io_out[37] O
io_out[3] O
io_out[4] O
io_out[5] O
io_out[6] O
io_out[7] O
io_out[8] O
io_out[9] O
wb_clk_i I
wb_rst_i I
wbs_ack_o O
wbs_adr_i[0] I
wbs_adr_i[10] I
wbs_adr_i[11] I
wbs_adr_i[12] I
wbs_adr_i[13] I
wbs_adr_i[14] I
wbs_adr_i[15] I
wbs_adr_i[16] I
wbs_adr_i[17] I
wbs_adr_i[18] I
wbs_adr_i[19] I
wbs_adr_i[1] I
wbs_adr_i[20] I
wbs_adr_i[21] I
wbs_adr_i[22] I
wbs_adr_i[23] I
wbs_adr_i[24] I
wbs_adr_i[25] I
wbs_adr_i[26] I
wbs_adr_i[27] I
wbs_adr_i[28] I
wbs_adr_i[29] I
wbs_adr_i[2] I
wbs_adr_i[30] I
wbs_adr_i[31] I
wbs_adr_i[3] I
wbs_adr_i[4] I
wbs_adr_i[5] I
wbs_adr_i[6] I
wbs_adr_i[7] I
wbs_adr_i[8] I
wbs_adr_i[9] I
wbs_cyc_i I
wbs_dat_i[0] I
wbs_dat_i[10] I
wbs_dat_i[11] I
wbs_dat_i[12] I
wbs_dat_i[13] I
wbs_dat_i[14] I
wbs_dat_i[15] I
wbs_dat_i[16] I
wbs_dat_i[17] I
wbs_dat_i[18] I
wbs_dat_i[19] I
wbs_dat_i[1] I
wbs_dat_i[20] I
wbs_dat_i[21] I
wbs_dat_i[22] I
wbs_dat_i[23] I
wbs_dat_i[24] I
wbs_dat_i[25] I
wbs_dat_i[26] I
wbs_dat_i[27] I
wbs_dat_i[28] I
wbs_dat_i[29] I
wbs_dat_i[2] I
wbs_dat_i[30] I
wbs_dat_i[31] I
wbs_dat_i[3] I
wbs_dat_i[4] I
wbs_dat_i[5] I
wbs_dat_i[6] I
wbs_dat_i[7] I
wbs_dat_i[8] I
wbs_dat_i[9] I
wbs_dat_o[0] O
wbs_dat_o[10] O
wbs_dat_o[11] O
wbs_dat_o[12] O
wbs_dat_o[13] O
wbs_dat_o[14] O
wbs_dat_o[15] O
wbs_dat_o[16] O
wbs_dat_o[17] O
wbs_dat_o[18] O
wbs_dat_o[19] O
wbs_dat_o[1] O
wbs_dat_o[20] O
wbs_dat_o[21] O
wbs_dat_o[22] O
wbs_dat_o[23] O
wbs_dat_o[24] O
wbs_dat_o[25] O
wbs_dat_o[26] O
wbs_dat_o[27] O
wbs_dat_o[28] O
wbs_dat_o[29] O
wbs_dat_o[2] O
wbs_dat_o[30] O
wbs_dat_o[31] O
wbs_dat_o[3] O
wbs_dat_o[4] O
wbs_dat_o[5] O
wbs_dat_o[6] O
wbs_dat_o[7] O
wbs_dat_o[8] O
wbs_dat_o[9] O
wbs_sel_i[0] I
wbs_sel_i[1] I
wbs_sel_i[2] I
wbs_sel_i[3] I
wbs_stb_i I
wbs_we_i I

*D_NET *30 0.429633
*CONN
*P io_in[0] I
*I *344:s1 I *D sky130_osu_ring_oscillator_mpr2ya_8_b0r2
*I *351:s1 I *D sky130_osu_ring_oscillator_mpr2ya_8_b0r1
*I *350:s1 I *D sky130_osu_ring_oscillator_mpr2xa_8_b0r1
*I *345:s1 I *D sky130_osu_ring_oscillator_mpr2at_8_b0r1
*I *337:s1 I *D sky130_osu_ring_oscillator_mpr2aa_8_b0r1
*I *346:s1 I *D sky130_osu_ring_oscillator_mpr2ca_8_b0r1
*I *347:s1 I *D sky130_osu_ring_oscillator_mpr2ct_8_b0r1
*I *348:s1 I *D sky130_osu_ring_oscillator_mpr2ea_8_b0r1
*I *349:s1 I *D sky130_osu_ring_oscillator_mpr2et_8_b0r1
*I *352:s1 I *D sky130_osu_ring_oscillator_mpr2aa_8_b0r2
*I *338:s1 I *D sky130_osu_ring_oscillator_mpr2at_8_b0r2
*I *339:s1 I *D sky130_osu_ring_oscillator_mpr2ca_8_b0r2
*I *340:s1 I *D sky130_osu_ring_oscillator_mpr2ct_8_b0r2
*I *341:s1 I *D sky130_osu_ring_oscillator_mpr2ea_8_b0r2
*I *342:s1 I *D sky130_osu_ring_oscillator_mpr2et_8_b0r2
*I *343:s1 I *D sky130_osu_ring_oscillator_mpr2xa_8_b0r2
*CAP
1 io_in[0] 0.0689495
2 *344:s1 0.000602891
3 *351:s1 0
4 *350:s1 0.000293125
5 *345:s1 7.21108e-06
6 *337:s1 0.000845644
7 *346:s1 0.000210633
8 *347:s1 0.000231973
9 *348:s1 0.000186969
10 *349:s1 0.000543947
11 *352:s1 0.000273752
12 *338:s1 0.00245463
13 *339:s1 0.00146994
14 *340:s1 0.0001758
15 *341:s1 0.000462503
16 *342:s1 0.000545399
17 *343:s1 0.000413973
18 *30:384 7.54776e-06
19 *30:373 0.00323455
20 *30:371 0.00399793
21 *30:355 0.00599115
22 *30:353 0.00543376
23 *30:333 0.00516909
24 *30:315 0.00532638
25 *30:307 0.00519241
26 *30:305 0.00408395
27 *30:283 0.00116972
28 *30:275 0.00405848
29 *30:260 0.00446674
30 *30:252 0.00513161
31 *30:250 0.00441738
32 *30:244 0.000962629
33 *30:236 0.00408771
34 *30:234 0.00438471
35 *30:220 0.00268874
36 *30:200 0.00507623
37 *30:181 0.0040753
38 *30:175 0.0033479
39 *30:173 0.0038171
40 *30:140 0.00436703
41 *30:138 0.00321797
42 *30:110 0.0043578
43 *30:108 0.0042251
44 *30:88 0.00399
45 *30:73 0.00449863
46 *30:65 0.00508447
47 *30:63 0.00496801
48 *30:42 0.00615346
49 *30:27 0.00742167
50 *30:25 0.00307326
51 *30:21 0.00312066
52 *30:9 0.0322855
53 *30:7 0.0303334
54 *30:5 0.0689495
55 *337:s1 *337:s2 0.000417544
56 *338:s1 *267:20 0
57 *339:s1 *253:12 0
58 *340:s1 *340:s2 0.000281925
59 *340:s1 *340:start 7.83769e-06
60 *341:s1 *341:start 9.58181e-05
61 *342:s1 *342:start 9.83442e-05
62 *343:s1 *343:start 5.23822e-05
63 *346:s1 *346:start 8.92153e-05
64 *347:s1 *347:start 4.82947e-05
65 *30:9 *344:s5 0
66 *30:9 *41:9 0.0255774
67 *30:9 *61:43 0.0001023
68 *30:21 *344:s3 0.0019826
69 *30:21 *41:15 0.00344565
70 *30:21 *41:41 0.000920844
71 *30:21 *62:13 0.000197015
72 *30:25 *41:41 0.000747085
73 *30:27 *41:43 0.00671587
74 *30:42 *41:43 0.000523581
75 *30:42 *41:75 0.00045423
76 *30:63 *41:85 0
77 *30:65 *255:12 0
78 *30:73 *41:115 0.00090673
79 *30:88 *41:115 0.000687397
80 *30:88 *41:145 0.00680677
81 *30:88 *41:160 2.28343e-05
82 *30:108 *41:160 0.000310714
83 *30:173 *338:s2 0.00153616
84 *30:175 *41:187 5.7986e-05
85 *30:175 *41:208 0.00752793
86 *30:181 *352:s2 0
87 *30:220 *265:12 0
88 *30:234 *41:239 0
89 *30:236 *41:268 0.00332272
90 *30:275 *41:284 0.00704768
91 *30:315 *41:314 0.000783301
92 *30:333 *41:314 0.000265691
93 *30:333 *41:330 0.00267145
94 *30:353 *346:s2 0
95 *30:353 *41:330 0.000264108
96 *30:355 *259:8 0
97 *30:371 *345:s2 0
98 *30:373 *337:s2 2.07414e-05
99 *30:373 *41:380 0.0058078
*RES
1 io_in[0] *30:5 213.377 
2 *30:5 *30:7 3.41 
3 *30:7 *30:9 773.018 
4 *30:9 *30:21 14.5929 
5 *30:21 *30:25 5.54693 
6 *30:25 *30:27 82.2411 
7 *30:27 *343:s1 21.7857 
8 *30:27 *30:42 95.75 
9 *30:42 *342:s1 24.9071 
10 *30:42 *30:63 13.1648 
11 *30:63 *30:65 79.0536 
12 *30:65 *30:73 20.4506 
13 *30:73 *341:s1 23.2955 
14 *30:73 *30:88 92.1071 
15 *30:88 *340:s1 8.99107 
16 *30:88 *30:108 13.1648 
17 *30:108 *30:110 66.3393 
18 *30:110 *339:s1 23.4241 
19 *339:s1 *30:138 10.1078 
20 *30:138 *30:140 59.0893 
21 *30:140 *338:s1 30.7232 
22 *338:s1 *30:173 25.6655 
23 *30:173 *30:175 93.0179 
24 *30:175 *30:181 8.23627 
25 *30:181 *352:s1 19.2732 
26 *30:181 *30:200 67.5179 
27 *30:200 *30:220 41.0979 
28 *30:220 *30:234 21.1553 
29 *30:234 *30:236 86.3393 
30 *30:236 *30:244 5.3511 
31 *30:244 *30:250 3.64657 
32 *30:250 *30:252 86.9464 
33 *30:252 *30:260 12.3645 
34 *30:260 *349:s1 13.9818 
35 *30:260 *30:275 96.0536 
36 *30:275 *30:283 5.92763 
37 *30:283 *348:s1 5.95524 
38 *30:283 *30:305 3.71863 
39 *30:305 *30:307 82.0893 
40 *30:307 *30:315 18.9327 
41 *30:315 *347:s1 9.3125 
42 *30:315 *30:333 93.625 
43 *30:333 *346:s1 8.8125 
44 *30:333 *30:353 12.7739 
45 *30:353 *30:355 89.9821 
46 *30:355 *30:371 32.1215 
47 *30:371 *30:373 72.9821 
48 *30:373 *337:s1 22.6161 
49 *337:s1 *30:384 0.151786 
50 *30:355 *345:s1 0.151786 
51 *30:244 *350:s1 7.79306 
52 *30:220 *351:s1 9.3 
53 *30:21 *344:s1 24.3564 
*END

*D_NET *41 0.452026
*CONN
*P io_in[1] I
*I *350:s2 I *D sky130_osu_ring_oscillator_mpr2xa_8_b0r1
*I *349:s2 I *D sky130_osu_ring_oscillator_mpr2et_8_b0r1
*I *347:s2 I *D sky130_osu_ring_oscillator_mpr2ct_8_b0r1
*I *337:s2 I *D sky130_osu_ring_oscillator_mpr2aa_8_b0r1
*I *345:s2 I *D sky130_osu_ring_oscillator_mpr2at_8_b0r1
*I *346:s2 I *D sky130_osu_ring_oscillator_mpr2ca_8_b0r1
*I *348:s2 I *D sky130_osu_ring_oscillator_mpr2ea_8_b0r1
*I *351:s2 I *D sky130_osu_ring_oscillator_mpr2ya_8_b0r1
*I *352:s2 I *D sky130_osu_ring_oscillator_mpr2aa_8_b0r2
*I *338:s2 I *D sky130_osu_ring_oscillator_mpr2at_8_b0r2
*I *339:s2 I *D sky130_osu_ring_oscillator_mpr2ca_8_b0r2
*I *340:s2 I *D sky130_osu_ring_oscillator_mpr2ct_8_b0r2
*I *341:s2 I *D sky130_osu_ring_oscillator_mpr2ea_8_b0r2
*I *342:s2 I *D sky130_osu_ring_oscillator_mpr2et_8_b0r2
*I *343:s2 I *D sky130_osu_ring_oscillator_mpr2xa_8_b0r2
*I *344:s2 I *D sky130_osu_ring_oscillator_mpr2ya_8_b0r2
*CAP
1 io_in[1] 0.0688943
2 *350:s2 0.00180017
3 *349:s2 0.00240503
4 *347:s2 0.000395611
5 *337:s2 0.00261679
6 *345:s2 0.00183548
7 *346:s2 0.00202048
8 *348:s2 0.00226574
9 *351:s2 0.00022598
10 *352:s2 0.001876
11 *338:s2 0.0015399
12 *339:s2 0.00196663
13 *340:s2 0.000956756
14 *341:s2 0.0021383
15 *342:s2 0.00275721
16 *343:s2 0.00175239
17 *344:s2 0.00040192
18 *41:380 0.00529773
19 *41:359 0.00456358
20 *41:357 0.00276271
21 *41:355 0.004596
22 *41:330 0.00529723
23 *41:328 0.00297455
24 *41:322 0.00439561
25 *41:320 0.00281737
26 *41:318 0.00198204
27 *41:314 0.00571266
28 *41:284 0.00962515
29 *41:282 0.00323318
30 *41:280 0.00274998
31 *41:276 0.00499689
32 *41:274 0.00499532
33 *41:268 0.00192232
34 *41:266 0.00306552
35 *41:260 0.00578425
36 *41:239 0.00436987
37 *41:233 0.00501037
38 *41:231 0.00428263
39 *41:208 0.0059245
40 *41:187 0.00859011
41 *41:185 0.00456635
42 *41:160 0.00772066
43 *41:145 0.00867481
44 *41:115 0.00896012
45 *41:85 0.00743842
46 *41:77 0.00503876
47 *41:75 0.00502471
48 *41:43 0.004984
49 *41:41 0.00395701
50 *41:15 0.00310482
51 *41:9 0.0224514
52 *41:7 0.0209293
53 *41:5 0.0688943
54 *350:s2 *280:12 0
55 *41:9 *61:17 0.000118344
56 *41:15 *344:s4 0.00205937
57 *41:15 *61:17 0.000155088
58 *41:15 *62:13 2.60077e-05
59 *337:s1 *337:s2 0.000417544
60 *340:s1 *340:s2 0.000281925
61 *30:9 *41:9 0.0255774
62 *30:21 *41:15 0.00344565
63 *30:21 *41:41 0.000920844
64 *30:25 *41:41 0.000747085
65 *30:27 *41:43 0.00671587
66 *30:42 *41:43 0.000523581
67 *30:42 *41:75 0.00045423
68 *30:63 *41:85 0
69 *30:73 *41:115 0.00090673
70 *30:88 *41:115 0.000687397
71 *30:88 *41:145 0.00680677
72 *30:88 *41:160 2.28343e-05
73 *30:108 *41:160 0.000310714
74 *30:173 *338:s2 0.00153616
75 *30:175 *41:187 5.7986e-05
76 *30:175 *41:208 0.00752793
77 *30:181 *352:s2 0
78 *30:234 *41:239 0
79 *30:236 *41:268 0.00332272
80 *30:275 *41:284 0.00704768
81 *30:315 *41:314 0.000783301
82 *30:333 *41:314 0.000265691
83 *30:333 *41:330 0.00267145
84 *30:353 *346:s2 0
85 *30:353 *41:330 0.000264108
86 *30:371 *345:s2 0
87 *30:373 *337:s2 2.07414e-05
88 *30:373 *41:380 0.0058078
*RES
1 io_in[1] *41:5 213.233 
2 *41:5 *41:7 3.41 
3 *41:7 *41:9 595.125 
4 *41:9 *41:15 15.0826 
5 *41:15 *344:s2 17.0893 
6 *41:15 *41:41 13.4257 
7 *41:41 *41:43 89.9821 
8 *41:43 *343:s2 27.3587 
9 *41:43 *41:75 13.3211 
10 *41:75 *41:77 93.625 
11 *41:77 *41:85 10.4295 
12 *41:85 *342:s2 33.0162 
13 *41:85 *41:115 89.9821 
14 *41:115 *341:s2 29.1616 
15 *41:115 *41:145 83.4554 
16 *41:145 *340:s2 33.4286 
17 *41:145 *41:160 101.366 
18 *41:160 *339:s2 22.8661 
19 *41:160 *41:185 12.8571 
20 *41:185 *41:187 80.8214 
21 *41:187 *338:s2 30.8067 
22 *41:187 *41:208 98.4821 
23 *41:208 *352:s2 34.8009 
24 *41:208 *41:231 18.75 
25 *41:231 *41:233 68.8571 
26 *41:233 *41:239 11.4793 
27 *41:239 *351:s2 8.77679 
28 *41:239 *41:260 51.125 
29 *41:260 *41:266 11.3351 
30 *41:266 *41:268 46.875 
31 *41:268 *41:274 7.87593 
32 *41:274 *41:276 95.4464 
33 *41:276 *41:280 4.46593 
34 *41:280 *41:282 3.41 
35 *41:282 *41:284 96.0536 
36 *41:284 *348:s2 29.7267 
37 *41:284 *41:314 86.3393 
38 *41:314 *41:318 7.92513 
39 *41:318 *41:320 3.41 
40 *41:320 *41:322 57.8036 
41 *41:322 *41:328 11.3351 
42 *41:328 *41:330 40.8036 
43 *41:330 *346:s2 24.5771 
44 *41:330 *41:355 37.4643 
45 *41:355 *41:357 55.6071 
46 *41:357 *41:359 0.946429 
47 *41:359 *345:s2 31.5554 
48 *41:359 *41:380 78.4464 
49 *41:380 *337:s2 39.5908 
50 *41:318 *347:s2 4.63592 
51 *41:280 *349:s2 24.3326 
52 *41:260 *350:s2 36.9911 
*END

*D_NET *52 0.467666
*CONN
*P io_in[2] I
*I *337:s3 I *D sky130_osu_ring_oscillator_mpr2aa_8_b0r1
*I *345:s3 I *D sky130_osu_ring_oscillator_mpr2at_8_b0r1
*I *346:s3 I *D sky130_osu_ring_oscillator_mpr2ca_8_b0r1
*I *347:s3 I *D sky130_osu_ring_oscillator_mpr2ct_8_b0r1
*I *348:s3 I *D sky130_osu_ring_oscillator_mpr2ea_8_b0r1
*I *349:s3 I *D sky130_osu_ring_oscillator_mpr2et_8_b0r1
*I *350:s3 I *D sky130_osu_ring_oscillator_mpr2xa_8_b0r1
*I *351:s3 I *D sky130_osu_ring_oscillator_mpr2ya_8_b0r1
*I *352:s3 I *D sky130_osu_ring_oscillator_mpr2aa_8_b0r2
*I *338:s3 I *D sky130_osu_ring_oscillator_mpr2at_8_b0r2
*I *339:s3 I *D sky130_osu_ring_oscillator_mpr2ca_8_b0r2
*I *340:s3 I *D sky130_osu_ring_oscillator_mpr2ct_8_b0r2
*I *341:s3 I *D sky130_osu_ring_oscillator_mpr2ea_8_b0r2
*I *342:s3 I *D sky130_osu_ring_oscillator_mpr2et_8_b0r2
*I *343:s3 I *D sky130_osu_ring_oscillator_mpr2xa_8_b0r2
*I *344:s3 I *D sky130_osu_ring_oscillator_mpr2ya_8_b0r2
*CAP
1 io_in[2] 0.0573326
2 *337:s3 0.00234317
3 *345:s3 0.00186744
4 *346:s3 0.00290047
5 *347:s3 0.00256574
6 *348:s3 0.00238431
7 *349:s3 0.000415927
8 *350:s3 0.00231246
9 *351:s3 0.00236186
10 *352:s3 0.00230174
11 *338:s3 0.00200159
12 *339:s3 0.00193927
13 *340:s3 0.00213805
14 *341:s3 0.00279633
15 *342:s3 0.00260532
16 *343:s3 0.0019946
17 *344:s3 0.00190923
18 *52:469 0.00550599
19 *52:467 0.00316282
20 *52:444 0.00226465
21 *52:440 0.00361159
22 *52:417 0.00857855
23 *52:415 0.00398454
24 *52:392 0.00677657
25 *52:390 0.00334312
26 *52:364 0.00538287
27 *52:354 0.00524915
28 *52:352 0.00386246
29 *52:330 0.0033328
30 *52:324 0.00475684
31 *52:322 0.00345992
32 *52:286 0.00712012
33 *52:259 0.00982578
34 *52:254 8.51044e-06
35 *52:235 0.00606129
36 *52:231 0.00363929
37 *52:207 0.00550691
38 *52:199 0.00284464
39 *52:197 0.00321692
40 *52:172 0.00629604
41 *52:170 0.00458382
42 *52:147 0.00471864
43 *52:145 0.00409657
44 *52:117 0.00619893
45 *52:113 0.00430171
46 *52:111 0.00363466
47 *52:77 0.00725799
48 *52:75 0.00529006
49 *52:39 0.00737181
50 *52:37 0.0044362
51 *52:13 0.0115985
52 *52:11 0.00968932
53 *52:9 0.0204023
54 *52:7 0.0204023
55 *52:5 0.0573326
56 *338:s3 *314:14 0.000490018
57 *339:s3 *339:s4 0.00233347
58 *339:s3 *61:206 0.000277924
59 *339:s3 *62:186 0.000490359
60 *340:s3 *340:s4 0.00196114
61 *340:s3 *61:158 0.000352531
62 *341:s3 *61:124 0
63 *342:s3 *61:118 0.000447641
64 *343:s3 *61:49 0.00175668
65 *344:s3 *62:13 0.000565644
66 *345:s3 *61:441 0.00135978
67 *346:s3 *61:401 0
68 *346:s3 *62:367 0
69 *346:s3 *291:18 0.000326259
70 *347:s3 *347:s4 0
71 *347:s3 *61:374 0
72 *348:s3 *348:s4 9.56122e-06
73 *351:s3 *61:266 0
74 *352:s3 *352:s4 0
75 *52:13 *62:13 0.0304156
76 *52:39 *61:43 0
77 *52:77 *62:100 0.00112872
78 *52:111 *62:100 0.00045423
79 *52:113 *271:14 0
80 *52:117 *271:14 0
81 *52:145 *271:14 0
82 *52:147 *61:158 0.00119527
83 *52:147 *271:14 0
84 *52:147 *302:15 0.000594724
85 *52:170 *61:181 0
86 *52:170 *62:164 0
87 *52:170 *271:14 0
88 *52:172 *61:181 0
89 *52:172 *271:14 0
90 *52:197 *62:188 0
91 *52:199 *62:188 0.00590207
92 *52:199 *62:208 0.000617123
93 *52:199 *271:14 2.2355e-05
94 *52:199 *313:14 0
95 *52:207 *61:226 0.000911859
96 *52:207 *62:208 0.00100279
97 *52:207 *62:210 7.63377e-05
98 *52:231 *62:210 0.00272322
99 *52:231 *62:220 0.000110662
100 *52:235 *62:220 0
101 *52:259 *61:262 0.00647451
102 *52:259 *62:220 0
103 *52:259 *62:246 0
104 *52:286 *61:304 0.00138945
105 *52:286 *62:246 0
106 *52:286 *62:268 0
107 *52:322 *61:304 7.92069e-05
108 *52:322 *61:308 0.00175708
109 *52:322 *62:268 0
110 *52:324 *61:310 0.00633996
111 *52:324 *61:334 0.000941447
112 *52:330 *61:334 0.00110294
113 *52:330 *62:307 6.05329e-06
114 *52:354 *294:12 0
115 *52:364 *61:336 0
116 *52:390 *62:321 0.000537755
117 *52:390 *62:323 0
118 *52:392 *61:370 0.00742451
119 *52:392 *62:323 0
120 *52:392 *62:339 0.000379657
121 *52:415 *61:370 0.00045423
122 *52:415 *62:339 0.00137413
123 *52:417 *62:347 0
124 *52:440 *62:369 0.00619645
125 *52:444 *61:441 0.000124389
126 *52:444 *62:396 0.00015942
127 *52:469 *337:s4 0.000875856
128 *52:469 *61:443 0.0032631
129 *30:21 *344:s3 0.0019826
*RES
1 io_in[2] *52:5 165.813 
2 *52:5 *52:7 3.41 
3 *52:7 *52:9 419.661 
4 *52:9 *52:11 3.41 
5 *52:11 *52:13 47.3227 
6 *52:13 *344:s3 28.7415 
7 *52:13 *52:37 3.41 
8 *52:37 *52:39 89.375 
9 *52:39 *343:s3 29.3118 
10 *52:39 *52:75 14.6183 
11 *52:75 *52:77 93.625 
12 *52:77 *342:s3 31.3536 
13 *52:77 *52:111 13.177 
14 *52:111 *52:113 68.0893 
15 *52:113 *52:117 19.5179 
16 *52:117 *341:s3 29.5028 
17 *52:117 *52:145 49.9821 
18 *52:145 *52:147 44.1071 
19 *52:147 *340:s3 26.2072 
20 *52:147 *52:170 18.6964 
21 *52:170 *52:172 74.7857 
22 *52:172 *339:s3 25.2068 
23 *52:172 *52:197 13.8929 
24 *52:197 *52:199 80.8214 
25 *52:199 *52:207 11.1502 
26 *52:207 *338:s3 29.6763 
27 *52:207 *52:231 89.375 
28 *52:231 *52:235 8.98214 
29 *52:235 *352:s3 31.8964 
30 *352:s3 *52:254 0.169643 
31 *52:235 *52:259 92.4107 
32 *52:259 *351:s3 26.1215 
33 *52:259 *52:286 93.0179 
34 *52:286 *350:s3 27.4027 
35 *52:286 *52:322 11.624 
36 *52:322 *52:324 89.9821 
37 *52:324 *52:330 13.5692 
38 *52:330 *349:s3 12.3628 
39 *52:330 *52:352 19.5357 
40 *52:352 *52:354 58.1607 
41 *52:354 *52:364 31.3351 
42 *52:364 *348:s3 12.2731 
43 *52:364 *52:390 12.288 
44 *52:390 *52:392 91.8036 
45 *52:392 *347:s3 27.2758 
46 *52:392 *52:415 45.5536 
47 *52:415 *52:417 50.1786 
48 *52:417 *346:s3 27.3423 
49 *52:417 *52:440 93.625 
50 *52:440 *52:444 4.89833 
51 *52:444 *345:s3 22.216 
52 *52:444 *52:467 3.41 
53 *52:467 *52:469 91.1964 
54 *52:469 *337:s3 25.1393 
*END

*D_NET *61 0.399523
*CONN
*P io_in[3] I
*I *350:s4 I *D sky130_osu_ring_oscillator_mpr2xa_8_b0r1
*I *337:s4 I *D sky130_osu_ring_oscillator_mpr2aa_8_b0r1
*I *345:s4 I *D sky130_osu_ring_oscillator_mpr2at_8_b0r1
*I *346:s4 I *D sky130_osu_ring_oscillator_mpr2ca_8_b0r1
*I *347:s4 I *D sky130_osu_ring_oscillator_mpr2ct_8_b0r1
*I *348:s4 I *D sky130_osu_ring_oscillator_mpr2ea_8_b0r1
*I *349:s4 I *D sky130_osu_ring_oscillator_mpr2et_8_b0r1
*I *351:s4 I *D sky130_osu_ring_oscillator_mpr2ya_8_b0r1
*I *352:s4 I *D sky130_osu_ring_oscillator_mpr2aa_8_b0r2
*I *338:s4 I *D sky130_osu_ring_oscillator_mpr2at_8_b0r2
*I *339:s4 I *D sky130_osu_ring_oscillator_mpr2ca_8_b0r2
*I *340:s4 I *D sky130_osu_ring_oscillator_mpr2ct_8_b0r2
*I *341:s4 I *D sky130_osu_ring_oscillator_mpr2ea_8_b0r2
*I *342:s4 I *D sky130_osu_ring_oscillator_mpr2et_8_b0r2
*I *343:s4 I *D sky130_osu_ring_oscillator_mpr2xa_8_b0r2
*I *344:s4 I *D sky130_osu_ring_oscillator_mpr2ya_8_b0r2
*CAP
1 io_in[3] 0.000854085
2 *350:s4 0.00103738
3 *337:s4 0.00144349
4 *345:s4 0.00239714
5 *346:s4 0.000357599
6 *347:s4 0.00182363
7 *348:s4 0.0019768
8 *349:s4 0.00137009
9 *351:s4 0.000379092
10 *352:s4 0.00182615
11 *338:s4 0.00109491
12 *339:s4 0.00120675
13 *340:s4 0.00112809
14 *341:s4 0.000545807
15 *342:s4 0.00217065
16 *343:s4 0.00046637
17 *344:s4 0.00105313
18 *61:460 0
19 *61:443 0.00382643
20 *61:441 0.00324487
21 *61:416 0.00450768
22 *61:414 0.00297247
23 *61:401 0.00137349
24 *61:397 0.00496078
25 *61:395 0.00394489
26 *61:374 0.00208076
27 *61:370 0.00325136
28 *61:368 0.00328487
29 *61:338 0.00226744
30 *61:336 0.0048787
31 *61:334 0.00574286
32 *61:310 0.00462734
33 *61:308 0.00294028
34 *61:304 0.00293361
35 *61:294 0.0049282
36 *61:292 0.00344375
37 *61:266 0.00338064
38 *61:262 0.00369507
39 *61:260 0.00263288
40 *61:236 0.00245277
41 *61:228 0.00366565
42 *61:226 0.00386354
43 *61:208 0.00450902
44 *61:206 0.00290043
45 *61:183 0.00151758
46 *61:181 0.00366855
47 *61:179 0.00366855
48 *61:158 0.00339366
49 *61:142 0.00555861
50 *61:140 0.00329305
51 *61:124 0.00141542
52 *61:120 0.00501681
53 *61:118 0.00546174
54 *61:75 0.00474024
55 *61:49 0.00487693
56 *61:43 0.0051317
57 *61:41 0.00460527
58 *61:17 0.00140958
59 *61:13 0.0732342
60 *61:11 0.0728778
61 *61:9 0.0114274
62 *61:7 0.0122815
63 *337:s4 *300:16 2.62061e-05
64 *337:s4 *316:5 0
65 *338:s4 *338:s5 0.000441826
66 *338:s4 *315:12 4.0967e-05
67 *338:s4 *331:8 7.95355e-05
68 *342:s4 *272:10 0.00040412
69 *342:s4 *304:12 0
70 *349:s4 *311:16 0
71 *349:s4 *327:5 7.32929e-05
72 *350:s4 *264:22 0
73 *350:s4 *312:12 0
74 *61:13 *62:13 0
75 *61:17 *62:13 6.14482e-06
76 *61:43 *344:s5 0
77 *61:43 *62:39 0
78 *61:43 *62:41 0
79 *61:75 *288:10 0
80 *61:124 *341:s5 0.000106136
81 *61:124 *62:106 0.000207703
82 *61:158 *62:142 0
83 *61:158 *62:164 0.00015693
84 *61:158 *302:15 0.000596439
85 *61:181 *62:164 7.70982e-05
86 *61:181 *62:166 0.00269635
87 *61:181 *62:170 0
88 *61:181 *62:186 0
89 *61:206 *62:186 0.000162522
90 *61:208 *330:11 0.00682495
91 *61:226 *62:208 2.24813e-05
92 *61:226 *330:11 0.000694456
93 *61:228 *62:210 0.00399364
94 *61:228 *62:220 0.000171768
95 *61:228 *311:18 0
96 *61:228 *312:14 0
97 *61:236 *62:220 0.000993385
98 *61:236 *311:18 0
99 *61:262 *62:220 0
100 *61:262 *62:228 0.000145192
101 *61:304 *62:268 0
102 *61:310 *257:26 0
103 *61:334 *257:26 0
104 *61:336 *62:309 0
105 *61:336 *62:321 0
106 *61:336 *62:323 0.000107769
107 *61:397 *62:339 0
108 *61:397 *62:347 0
109 *61:397 *62:367 0.00022252
110 *61:441 *62:396 0.000802578
111 *61:441 *300:18 0.000181291
112 *339:s3 *339:s4 0.00233347
113 *339:s3 *61:206 0.000277924
114 *340:s3 *340:s4 0.00196114
115 *340:s3 *61:158 0.000352531
116 *341:s3 *61:124 0
117 *342:s3 *61:118 0.000447641
118 *343:s3 *61:49 0.00175668
119 *345:s3 *61:441 0.00135978
120 *346:s3 *61:401 0
121 *347:s3 *347:s4 0
122 *347:s3 *61:374 0
123 *348:s3 *348:s4 9.56122e-06
124 *351:s3 *61:266 0
125 *352:s3 *352:s4 0
126 *30:9 *61:43 0.0001023
127 *41:9 *61:17 0.000118344
128 *41:15 *344:s4 0.00205937
129 *41:15 *61:17 0.000155088
130 *52:39 *61:43 0
131 *52:147 *61:158 0.00119527
132 *52:170 *61:181 0
133 *52:172 *61:181 0
134 *52:207 *61:226 0.000911859
135 *52:259 *61:262 0.00647451
136 *52:286 *61:304 0.00138945
137 *52:322 *61:304 7.92069e-05
138 *52:322 *61:308 0.00175708
139 *52:324 *61:310 0.00633996
140 *52:324 *61:334 0.000941447
141 *52:330 *61:334 0.00110294
142 *52:364 *61:336 0
143 *52:392 *61:370 0.00742451
144 *52:415 *61:370 0.00045423
145 *52:444 *61:441 0.000124389
146 *52:469 *337:s4 0.000875856
147 *52:469 *61:443 0.0032631
*RES
1 io_in[3] *61:7 5.99187 
2 *61:7 *61:9 235.089 
3 *61:9 *61:11 3.41 
4 *61:11 *61:13 210.662 
5 *61:13 *61:17 0.985433 
6 *61:17 *344:s4 22.8958 
7 *61:17 *61:41 3.41 
8 *61:41 *61:43 92.4107 
9 *61:43 *61:49 9.53347 
10 *61:49 *343:s4 18.5491 
11 *61:49 *61:75 79.1607 
12 *61:75 *342:s4 14.5864 
13 *342:s4 *61:118 29.1884 
14 *61:118 *61:120 84.5179 
15 *61:120 *61:124 5.8352 
16 *61:124 *341:s4 6.6914 
17 *61:124 *61:140 3.41 
18 *61:140 *61:142 67.5179 
19 *61:142 *61:158 45.8935 
20 *61:158 *340:s4 18.9627 
21 *61:158 *61:179 3.41 
22 *61:179 *61:181 93.625 
23 *61:181 *61:183 3.41 
24 *61:183 *339:s4 19.381 
25 *61:183 *61:206 4.61007 
26 *61:206 *61:208 83.7589 
27 *61:208 *338:s4 27.5089 
28 *61:208 *61:226 17.3734 
29 *61:226 *61:228 91.3214 
30 *61:228 *61:236 16.7121 
31 *61:236 *352:s4 31.862 
32 *61:236 *61:260 3.41 
33 *61:260 *61:262 80.875 
34 *61:262 *61:266 6.19553 
35 *61:266 *351:s4 6.8929 
36 *61:266 *61:292 43.1421 
37 *61:292 *61:294 30.9107 
38 *61:294 *61:304 47.7171 
39 *61:304 *61:308 6.19553 
40 *61:308 *61:310 77.6875 
41 *61:310 *349:s4 35.3616 
42 *61:310 *61:334 21.0162 
43 *61:334 *61:336 99.6964 
44 *61:336 *61:338 3.41 
45 *61:338 *348:s4 26.369 
46 *61:338 *61:368 4.1056 
47 *61:368 *61:370 96.6607 