*SPEF "ieee 1481-1999"
*DESIGN "user_project_wrapper"
*DATE "11:11:11 Fri 11 11, 1111"
*VENDOR "OpenRCX"
*PROGRAM "Parallel Extraction"
*VERSION "1.0"
*DESIGN_FLOW "NAME_SCOPE LOCAL" "PIN_CAP NONE"
*DIVIDER /
*DELIMITER :
*BUS_DELIMITER []
*T_UNIT 1 NS
*C_UNIT 1 PF
*R_UNIT 1 OHM
*L_UNIT 1 HENRY

*NAME_MAP
*1 analog_io[0]
*2 analog_io[10]
*3 analog_io[11]
*4 analog_io[12]
*5 analog_io[13]
*6 analog_io[14]
*7 analog_io[15]
*8 analog_io[16]
*9 analog_io[17]
*10 analog_io[18]
*11 analog_io[19]
*12 analog_io[1]
*13 analog_io[20]
*14 analog_io[21]
*15 analog_io[22]
*16 analog_io[23]
*17 analog_io[24]
*18 analog_io[25]
*19 analog_io[26]
*20 analog_io[27]
*21 analog_io[28]
*22 analog_io[2]
*23 analog_io[3]
*24 analog_io[4]
*25 analog_io[5]
*26 analog_io[6]
*27 analog_io[7]
*28 analog_io[8]
*29 analog_io[9]
*30 io_in[0]
*31 io_in[10]
*32 io_in[11]
*33 io_in[12]
*34 io_in[13]
*35 io_in[14]
*36 io_in[15]
*37 io_in[16]
*38 io_in[17]
*39 io_in[18]
*40 io_in[19]
*41 io_in[1]
*42 io_in[20]
*43 io_in[21]
*44 io_in[22]
*45 io_in[23]
*46 io_in[24]
*47 io_in[25]
*48 io_in[26]
*49 io_in[27]
*50 io_in[28]
*51 io_in[29]
*52 io_in[2]
*53 io_in[30]
*54 io_in[31]
*55 io_in[32]
*56 io_in[33]
*57 io_in[34]
*58 io_in[35]
*59 io_in[36]
*60 io_in[37]
*61 io_in[3]
*62 io_in[4]
*63 io_in[5]
*64 io_in[6]
*65 io_in[7]
*66 io_in[8]
*67 io_in[9]
*68 io_oeb[0]
*69 io_oeb[10]
*70 io_oeb[11]
*71 io_oeb[12]
*72 io_oeb[13]
*73 io_oeb[14]
*74 io_oeb[15]
*75 io_oeb[16]
*76 io_oeb[17]
*77 io_oeb[18]
*78 io_oeb[19]
*79 io_oeb[1]
*80 io_oeb[20]
*81 io_oeb[21]
*82 io_oeb[22]
*83 io_oeb[23]
*84 io_oeb[24]
*85 io_oeb[25]
*86 io_oeb[26]
*87 io_oeb[27]
*88 io_oeb[28]
*89 io_oeb[29]
*90 io_oeb[2]
*91 io_oeb[30]
*92 io_oeb[31]
*93 io_oeb[32]
*94 io_oeb[33]
*95 io_oeb[34]
*96 io_oeb[35]
*97 io_oeb[36]
*98 io_oeb[37]
*99 io_oeb[3]
*100 io_oeb[4]
*101 io_oeb[5]
*102 io_oeb[6]
*103 io_oeb[7]
*104 io_oeb[8]
*105 io_oeb[9]
*106 io_out[0]
*107 io_out[10]
*108 io_out[11]
*109 io_out[12]
*110 io_out[13]
*111 io_out[14]
*112 io_out[15]
*113 io_out[16]
*114 io_out[17]
*115 io_out[18]
*116 io_out[19]
*117 io_out[1]
*118 io_out[20]
*119 io_out[21]
*120 io_out[22]
*121 io_out[23]
*122 io_out[24]
*123 io_out[25]
*124 io_out[26]
*125 io_out[27]
*126 io_out[28]
*127 io_out[29]
*128 io_out[2]
*129 io_out[30]
*130 io_out[31]
*131 io_out[32]
*132 io_out[33]
*133 io_out[34]
*134 io_out[35]
*135 io_out[36]
*136 io_out[37]
*137 io_out[3]
*138 io_out[4]
*139 io_out[5]
*140 io_out[6]
*141 io_out[7]
*142 io_out[8]
*143 io_out[9]
*146 wb_clk_i
*147 wb_rst_i
*148 wbs_ack_o
*149 wbs_adr_i[0]
*150 wbs_adr_i[10]
*151 wbs_adr_i[11]
*152 wbs_adr_i[12]
*153 wbs_adr_i[13]
*154 wbs_adr_i[14]
*155 wbs_adr_i[15]
*156 wbs_adr_i[16]
*157 wbs_adr_i[17]
*158 wbs_adr_i[18]
*159 wbs_adr_i[19]
*160 wbs_adr_i[1]
*161 wbs_adr_i[20]
*162 wbs_adr_i[21]
*163 wbs_adr_i[22]
*164 wbs_adr_i[23]
*165 wbs_adr_i[24]
*166 wbs_adr_i[25]
*167 wbs_adr_i[26]
*168 wbs_adr_i[27]
*169 wbs_adr_i[28]
*170 wbs_adr_i[29]
*171 wbs_adr_i[2]
*172 wbs_adr_i[30]
*173 wbs_adr_i[31]
*174 wbs_adr_i[3]
*175 wbs_adr_i[4]
*176 wbs_adr_i[5]
*177 wbs_adr_i[6]
*178 wbs_adr_i[7]
*179 wbs_adr_i[8]
*180 wbs_adr_i[9]
*181 wbs_cyc_i
*182 wbs_dat_i[0]
*183 wbs_dat_i[10]
*184 wbs_dat_i[11]
*185 wbs_dat_i[12]
*186 wbs_dat_i[13]
*187 wbs_dat_i[14]
*188 wbs_dat_i[15]
*189 wbs_dat_i[16]
*190 wbs_dat_i[17]
*191 wbs_dat_i[18]
*192 wbs_dat_i[19]
*193 wbs_dat_i[1]
*194 wbs_dat_i[20]
*195 wbs_dat_i[21]
*196 wbs_dat_i[22]
*197 wbs_dat_i[23]
*198 wbs_dat_i[24]
*199 wbs_dat_i[25]
*200 wbs_dat_i[26]
*201 wbs_dat_i[27]
*202 wbs_dat_i[28]
*203 wbs_dat_i[29]
*204 wbs_dat_i[2]
*205 wbs_dat_i[30]
*206 wbs_dat_i[31]
*207 wbs_dat_i[3]
*208 wbs_dat_i[4]
*209 wbs_dat_i[5]
*210 wbs_dat_i[6]
*211 wbs_dat_i[7]
*212 wbs_dat_i[8]
*213 wbs_dat_i[9]
*214 wbs_dat_o[0]
*215 wbs_dat_o[10]
*216 wbs_dat_o[11]
*217 wbs_dat_o[12]
*218 wbs_dat_o[13]
*219 wbs_dat_o[14]
*220 wbs_dat_o[15]
*221 wbs_dat_o[16]
*222 wbs_dat_o[17]
*223 wbs_dat_o[18]
*224 wbs_dat_o[19]
*225 wbs_dat_o[1]
*226 wbs_dat_o[20]
*227 wbs_dat_o[21]
*228 wbs_dat_o[22]
*229 wbs_dat_o[23]
*230 wbs_dat_o[24]
*231 wbs_dat_o[25]
*232 wbs_dat_o[26]
*233 wbs_dat_o[27]
*234 wbs_dat_o[28]
*235 wbs_dat_o[29]
*236 wbs_dat_o[2]
*237 wbs_dat_o[30]
*238 wbs_dat_o[31]
*239 wbs_dat_o[3]
*240 wbs_dat_o[4]
*241 wbs_dat_o[5]
*242 wbs_dat_o[6]
*243 wbs_dat_o[7]
*244 wbs_dat_o[8]
*245 wbs_dat_o[9]
*246 wbs_sel_i[0]
*247 wbs_sel_i[1]
*248 wbs_sel_i[2]
*249 wbs_sel_i[3]
*250 wbs_stb_i
*251 wbs_we_i
*252 x1\[0\]
*253 x1\[10\]
*254 x1\[11\]
*255 x1\[12\]
*256 x1\[13\]
*257 x1\[14\]
*258 x1\[15\]
*259 x1\[1\]
*260 x1\[2\]
*261 x1\[3\]
*262 x1\[4\]
*263 x1\[5\]
*264 x1\[6\]
*265 x1\[7\]
*266 x1\[8\]
*267 x1\[9\]
*268 x2\[0\]
*269 x2\[10\]
*270 x2\[11\]
*271 x2\[12\]
*272 x2\[13\]
*273 x2\[14\]
*274 x2\[15\]
*275 x2\[1\]
*276 x2\[2\]
*277 x2\[3\]
*278 x2\[4\]
*279 x2\[5\]
*280 x2\[6\]
*281 x2\[7\]
*282 x2\[8\]
*283 x2\[9\]
*284 x3\[0\]
*285 x3\[10\]
*286 x3\[11\]
*287 x3\[12\]
*288 x3\[13\]
*289 x3\[14\]
*290 x3\[15\]
*291 x3\[1\]
*292 x3\[2\]
*293 x3\[3\]
*294 x3\[4\]
*295 x3\[5\]
*296 x3\[6\]
*297 x3\[7\]
*298 x3\[8\]
*299 x3\[9\]
*300 x4\[0\]
*301 x4\[10\]
*302 x4\[11\]
*303 x4\[12\]
*304 x4\[13\]
*305 x4\[14\]
*306 x4\[15\]
*307 x4\[1\]
*308 x4\[2\]
*309 x4\[3\]
*310 x4\[4\]
*311 x4\[5\]
*312 x4\[6\]
*313 x4\[7\]
*314 x4\[8\]
*315 x4\[9\]
*316 x5\[0\]
*317 x5\[10\]
*318 x5\[11\]
*319 x5\[12\]
*320 x5\[13\]
*321 x5\[14\]
*322 x5\[15\]
*323 x5\[1\]
*324 x5\[2\]
*325 x5\[3\]
*326 x5\[4\]
*327 x5\[5\]
*328 x5\[6\]
*329 x5\[7\]
*330 x5\[8\]
*331 x5\[9\]
*332 mprj1
*333 mprj2
*334 mprj3
*335 mprj4
*336 mprj5
*337 ro1
*338 ro10
*339 ro11
*340 ro12
*341 ro13
*342 ro14
*343 ro15
*344 ro16
*345 ro2
*346 ro3
*347 ro4
*348 ro5
*349 ro6
*350 ro7
*351 ro8
*352 ro9

*PORTS
analog_io[0] I
analog_io[10] I
analog_io[11] I
analog_io[12] I
analog_io[13] I
analog_io[14] I
analog_io[15] I
analog_io[16] I
analog_io[17] I
analog_io[18] I
analog_io[19] I
analog_io[1] I
analog_io[20] I
analog_io[21] I
analog_io[22] I
analog_io[23] I
analog_io[24] I
analog_io[25] I
analog_io[26] I
analog_io[27] I
analog_io[28] I
analog_io[2] I
analog_io[3] I
analog_io[4] I
analog_io[5] I
analog_io[6] I
analog_io[7] I
analog_io[8] I
analog_io[9] I
io_in[0] I
io_in[10] I
io_in[11] I
io_in[12] I
io_in[13] I
io_in[14] I
io_in[15] I
io_in[16] I
io_in[17] I
io_in[18] I
io_in[19] I
io_in[1] I
io_in[20] I
io_in[21] I
io_in[22] I
io_in[23] I
io_in[24] I
io_in[25] I
io_in[26] I
io_in[27] I
io_in[28] I
io_in[29] I
io_in[2] I
io_in[30] I
io_in[31] I
io_in[32] I
io_in[33] I
io_in[34] I
io_in[35] I
io_in[36] I
io_in[37] I
io_in[3] I
io_in[4] I
io_in[5] I
io_in[6] I
io_in[7] I
io_in[8] I
io_in[9] I
io_oeb[0] O
io_oeb[10] O
io_oeb[11] O
io_oeb[12] O
io_oeb[13] O
io_oeb[14] O
io_oeb[15] O
io_oeb[16] O
io_oeb[17] O
io_oeb[18] O
io_oeb[19] O
io_oeb[1] O
io_oeb[20] O
io_oeb[21] O
io_oeb[22] O
io_oeb[23] O
io_oeb[24] O
io_oeb[25] O
io_oeb[26] O
io_oeb[27] O
io_oeb[28] O
io_oeb[29] O
io_oeb[2] O
io_oeb[30] O
io_oeb[31] O
io_oeb[32] O
io_oeb[33] O
io_oeb[34] O
io_oeb[35] O
io_oeb[36] O
io_oeb[37] O
io_oeb[3] O
io_oeb[4] O
io_oeb[5] O
io_oeb[6] O
io_oeb[7] O
io_oeb[8] O
io_oeb[9] O
io_out[0] O
io_out[10] O
io_out[11] O
io_out[12] O
io_out[13] O
io_out[14] O
io_out[15] O
io_out[16] O
io_out[17] O
io_out[18] O
io_out[19] O
io_out[1] O
io_out[20] O
io_out[21] O
io_out[22] O
io_out[23] O
io_out[24] O
io_out[25] O
io_out[26] O
io_out[27] O
io_out[28] O
io_out[29] O
io_out[2] O
io_out[30] O
io_out[31] O
io_out[32] O
io_out[33] O
io_out[34] O
io_out[35] O
io_out[36] O
io_out[37] O
io_out[3] O
io_out[4] O
io_out[5] O
io_out[6] O
io_out[7] O
io_out[8] O
io_out[9] O
wb_clk_i I
wb_rst_i I
wbs_ack_o O
wbs_adr_i[0] I
wbs_adr_i[10] I
wbs_adr_i[11] I
wbs_adr_i[12] I
wbs_adr_i[13] I
wbs_adr_i[14] I
wbs_adr_i[15] I
wbs_adr_i[16] I
wbs_adr_i[17] I
wbs_adr_i[18] I
wbs_adr_i[19] I
wbs_adr_i[1] I
wbs_adr_i[20] I
wbs_adr_i[21] I
wbs_adr_i[22] I
wbs_adr_i[23] I
wbs_adr_i[24] I
wbs_adr_i[25] I
wbs_adr_i[26] I
wbs_adr_i[27] I
wbs_adr_i[28] I
wbs_adr_i[29] I
wbs_adr_i[2] I
wbs_adr_i[30] I
wbs_adr_i[31] I
wbs_adr_i[3] I
wbs_adr_i[4] I
wbs_adr_i[5] I
wbs_adr_i[6] I
wbs_adr_i[7] I
wbs_adr_i[8] I
wbs_adr_i[9] I
wbs_cyc_i I
wbs_dat_i[0] I
wbs_dat_i[10] I
wbs_dat_i[11] I
wbs_dat_i[12] I
wbs_dat_i[13] I
wbs_dat_i[14] I
wbs_dat_i[15] I
wbs_dat_i[16] I
wbs_dat_i[17] I
wbs_dat_i[18] I
wbs_dat_i[19] I
wbs_dat_i[1] I
wbs_dat_i[20] I
wbs_dat_i[21] I
wbs_dat_i[22] I
wbs_dat_i[23] I
wbs_dat_i[24] I
wbs_dat_i[25] I
wbs_dat_i[26] I
wbs_dat_i[27] I
wbs_dat_i[28] I
wbs_dat_i[29] I
wbs_dat_i[2] I
wbs_dat_i[30] I
wbs_dat_i[31] I
wbs_dat_i[3] I
wbs_dat_i[4] I
wbs_dat_i[5] I
wbs_dat_i[6] I
wbs_dat_i[7] I
wbs_dat_i[8] I
wbs_dat_i[9] I
wbs_dat_o[0] O
wbs_dat_o[10] O
wbs_dat_o[11] O
wbs_dat_o[12] O
wbs_dat_o[13] O
wbs_dat_o[14] O
wbs_dat_o[15] O
wbs_dat_o[16] O
wbs_dat_o[17] O
wbs_dat_o[18] O
wbs_dat_o[19] O
wbs_dat_o[1] O
wbs_dat_o[20] O
wbs_dat_o[21] O
wbs_dat_o[22] O
wbs_dat_o[23] O
wbs_dat_o[24] O
wbs_dat_o[25] O
wbs_dat_o[26] O
wbs_dat_o[27] O
wbs_dat_o[28] O
wbs_dat_o[29] O
wbs_dat_o[2] O
wbs_dat_o[30] O
wbs_dat_o[31] O
wbs_dat_o[3] O
wbs_dat_o[4] O
wbs_dat_o[5] O
wbs_dat_o[6] O
wbs_dat_o[7] O
wbs_dat_o[8] O
wbs_dat_o[9] O
wbs_sel_i[0] I
wbs_sel_i[1] I
wbs_sel_i[2] I
wbs_sel_i[3] I
wbs_stb_i I
wbs_we_i I

*D_NET *30 0.419039
*CONN
*P io_in[0] I
*I *344:s1 I *D sky130_osu_ring_oscillator_mpr2ya_8_b0r2
*I *343:s1 I *D sky130_osu_ring_oscillator_mpr2xa_8_b0r2
*I *347:s1 I *D sky130_osu_ring_oscillator_mpr2ct_8_b0r1
*I *337:s1 I *D sky130_osu_ring_oscillator_mpr2aa_8_b0r1
*I *345:s1 I *D sky130_osu_ring_oscillator_mpr2at_8_b0r1
*I *346:s1 I *D sky130_osu_ring_oscillator_mpr2ca_8_b0r1
*I *348:s1 I *D sky130_osu_ring_oscillator_mpr2ea_8_b0r1
*I *349:s1 I *D sky130_osu_ring_oscillator_mpr2et_8_b0r1
*I *350:s1 I *D sky130_osu_ring_oscillator_mpr2xa_8_b0r1
*I *351:s1 I *D sky130_osu_ring_oscillator_mpr2ya_8_b0r1
*I *352:s1 I *D sky130_osu_ring_oscillator_mpr2aa_8_b0r2
*I *338:s1 I *D sky130_osu_ring_oscillator_mpr2at_8_b0r2
*I *339:s1 I *D sky130_osu_ring_oscillator_mpr2ca_8_b0r2
*I *340:s1 I *D sky130_osu_ring_oscillator_mpr2ct_8_b0r2
*I *341:s1 I *D sky130_osu_ring_oscillator_mpr2ea_8_b0r2
*I *342:s1 I *D sky130_osu_ring_oscillator_mpr2et_8_b0r2
*CAP
1 io_in[0] 0.0689495
2 *344:s1 0.000651032
3 *343:s1 0.000297804
4 *347:s1 0.000155899
5 *337:s1 0.00052191
6 *345:s1 0.000563874
7 *346:s1 0.000188162
8 *348:s1 0.000407624
9 *349:s1 0.000590505
10 *350:s1 0.00040844
11 *351:s1 0.000360202
12 *352:s1 0.000493129
13 *338:s1 0.0019188
14 *339:s1 0.000266705
15 *340:s1 0.000228983
16 *341:s1 0.000488588
17 *342:s1 0.000657074
18 *30:268 0.00320314
19 *30:253 0.00370431
20 *30:249 0.00482499
21 *30:235 0.00925209
22 *30:233 0.00944667
23 *30:218 0.00750218
24 *30:216 0.00329589
25 *30:199 0.00294241
26 *30:197 0.00304779
27 *30:180 0.00297997
28 *30:172 0.00308943
29 *30:161 0.00548092
30 *30:146 0.00673845
31 *30:144 0.00367244
32 *30:140 0.000833466
33 *30:122 0.00433853
34 *30:120 0.0027131
35 *30:107 0.0026302
36 *30:95 0.0055726
37 *30:93 0.00427291
38 *30:73 0.00250998
39 *30:71 0.00204964
40 *30:67 0.00197517
41 *30:50 0.0020115
42 *30:46 0.00324861
43 *30:31 0.00659342
44 *30:29 0.00317099
45 *30:25 0.000400863
46 *30:23 0.00281
47 *30:21 0.00330854
48 *30:13 0.00341202
49 *30:9 0.0411967
50 *30:7 0.0389342
51 *30:5 0.0689495
52 *337:s1 *337:start 2.10824e-05
53 *338:s1 *267:11 0
54 *340:s1 *340:start 1.28239e-05
55 *341:s1 *341:start 2.10824e-05
56 *342:s1 *342:start 1.52434e-05
57 *343:s1 *343:s2 8.03479e-05
58 *345:s1 *345:start 9.18201e-05
59 *349:s1 *349:start 1.28239e-05
60 *350:s1 *350:start 2.51343e-06
61 *351:s1 *351:start 1.20319e-05
62 *352:s1 *352:start 5.49995e-05
63 *30:9 *344:s5 1.9257e-05
64 *30:9 *62:33 0.000833303
65 *30:13 *41:13 0.00517148
66 *30:13 *41:21 0.00185148
67 *30:21 *41:21 0.000508721
68 *30:23 *41:23 0.00497935
69 *30:23 *41:27 0.000802323
70 *30:23 *41:42 6.63643e-05
71 *30:29 *343:s2 3.80953e-06
72 *30:29 *343:start 6.07474e-05
73 *30:31 *41:42 0.000387014
74 *30:31 *52:75 0.00368179
75 *30:46 *41:42 2.00751e-05
76 *30:46 *41:69 0.00232545
77 *30:46 *52:75 0.000436699
78 *30:50 *41:69 0.000888683
79 *30:67 *41:69 0.000660499
80 *30:67 *41:73 2.00751e-05
81 *30:67 *41:101 0.000752788
82 *30:71 *41:101 0.00198801
83 *30:73 *41:101 0.00168361
84 *30:93 *41:101 0.000125424
85 *30:107 *41:141 0.00391768
86 *30:144 *338:start 3.36355e-05
87 *30:146 *41:169 0.000820177
88 *30:146 *41:196 0.00676922
89 *30:161 *41:196 0.000643031
90 *30:161 *41:224 0.00692595
91 *30:172 *41:224 0.00048353
92 *30:172 *41:252 0.00442894
93 *30:180 *41:252 0.0014451
94 *30:197 *41:252 0.00048742
95 *30:197 *41:277 0.000815658
96 *30:197 *41:279 0.00121699
97 *30:199 *41:279 0.00418183
98 *30:216 *41:279 0.000900245
99 *30:216 *41:306 0.000974664
100 *30:218 *41:306 0.00135955
101 *30:218 *41:316 0.00236187
102 *30:233 *41:316 0.000254427
103 *30:268 *41:398 0.00616662
*RES
1 io_in[0] *30:5 213.377 
2 *30:5 *30:7 3.41 
3 *30:7 *30:9 778.482 
4 *30:9 *30:13 14.3391 
5 *30:13 *30:21 5.243 
6 *30:21 *30:23 83.4554 
7 *30:23 *30:25 4.5 
8 *30:25 *30:29 6.67857 
9 *30:29 *30:31 92.4107 
10 *30:31 *342:s1 26.492 
11 *30:31 *30:46 83.1161 
12 *30:46 *30:50 11.8839 
13 *30:50 *341:s1 22.8259 
14 *30:50 *30:67 33.3839 
15 *30:67 *30:71 25.3036 
16 *30:71 *30:73 36.9732 
17 *30:73 *340:s1 8.91071 
18 *30:73 *30:93 12.3262 
19 *30:93 *30:95 65.6964 
20 *30:95 *30:107 45.3824 
21 *30:107 *339:s1 4.2513 
22 *30:107 *30:120 3.41 
23 *30:120 *30:122 55.4464 
24 *30:122 *338:s1 33.7902 
25 *338:s1 *30:140 10.2723 
26 *30:140 *30:144 14.8929 
27 *30:144 *30:146 94.6875 
28 *30:146 *352:s1 23.2375 
29 *30:146 *30:161 94.3839 
30 *30:161 *351:s1 20.7509 
31 *30:161 *30:172 61.2232 
32 *30:172 *30:180 32.5089 
33 *30:180 *350:s1 21.1696 
34 *30:180 *30:197 43.4018 
35 *30:197 *30:199 51.1875 
36 *30:199 *349:s1 25.2643 
37 *30:199 *30:216 23.9375 
38 *30:216 *30:218 72.5804 
39 *30:218 *348:s1 21.9027 
40 *30:218 *30:233 92.5625 
41 *30:233 *30:235 93.4732 
42 *30:235 *346:s1 8.20982 
43 *30:235 *30:249 86.8839 
44 *30:249 *30:253 9.4375 
45 *30:253 *345:s1 25.2732 
46 *30:253 *30:268 83 
47 *30:268 *337:s1 23.8982 
48 *30:233 *347:s1 7.74554 
49 *30:25 *343:s1 15.8313 
50 *30:13 *344:s1 25.1151 
*END

*D_NET *41 0.447142
*CONN
*P io_in[1] I
*I *344:s2 I *D sky130_osu_ring_oscillator_mpr2ya_8_b0r2
*I *346:s2 I *D sky130_osu_ring_oscillator_mpr2ca_8_b0r1
*I *345:s2 I *D sky130_osu_ring_oscillator_mpr2at_8_b0r1
*I *337:s2 I *D sky130_osu_ring_oscillator_mpr2aa_8_b0r1
*I *347:s2 I *D sky130_osu_ring_oscillator_mpr2ct_8_b0r1
*I *348:s2 I *D sky130_osu_ring_oscillator_mpr2ea_8_b0r1
*I *349:s2 I *D sky130_osu_ring_oscillator_mpr2et_8_b0r1
*I *350:s2 I *D sky130_osu_ring_oscillator_mpr2xa_8_b0r1
*I *351:s2 I *D sky130_osu_ring_oscillator_mpr2ya_8_b0r1
*I *352:s2 I *D sky130_osu_ring_oscillator_mpr2aa_8_b0r2
*I *338:s2 I *D sky130_osu_ring_oscillator_mpr2at_8_b0r2
*I *339:s2 I *D sky130_osu_ring_oscillator_mpr2ca_8_b0r2
*I *340:s2 I *D sky130_osu_ring_oscillator_mpr2ct_8_b0r2
*I *341:s2 I *D sky130_osu_ring_oscillator_mpr2ea_8_b0r2
*I *342:s2 I *D sky130_osu_ring_oscillator_mpr2et_8_b0r2
*I *343:s2 I *D sky130_osu_ring_oscillator_mpr2xa_8_b0r2
*CAP
1 io_in[1] 0.0609744
2 *344:s2 0.00066072
3 *346:s2 0.000434389
4 *345:s2 0.00220399
5 *337:s2 0.00196277
6 *347:s2 0.000766711
7 *348:s2 0.000296848
8 *349:s2 0.00233041
9 *350:s2 0.00141096
10 *351:s2 0.0018911
11 *352:s2 0.00199159
12 *338:s2 0
13 *339:s2 0.000458271
14 *340:s2 0.00183817
15 *341:s2 0.00207679
16 *342:s2 0.00165335
17 *343:s2 0.00111318
18 *41:398 0.00448458
19 *41:396 0.00252182
20 *41:394 0.00251699
21 *41:390 0.0057223
22 *41:388 0.00720667
23 *41:382 0.00624295
24 *41:380 0.00442601
25 *41:346 0.00272562
26 *41:336 0.00414793
27 *41:316 0.00477998
28 *41:306 0.00457004
29 *41:279 0.0069771
30 *41:277 0.00322068
31 *41:252 0.00488852
32 *41:247 0
33 *41:224 0.00798585
34 *41:196 0.00808608
35 *41:189 0.00196496
36 *41:169 0.00754005
37 *41:167 0.00367433
38 *41:163 0.00334273
39 *41:141 0.00461087
40 *41:129 0.00473288
41 *41:101 0.00815404
42 *41:73 0.00568484
43 *41:69 0.00321104
44 *41:42 0.00810273
45 *41:27 0.00503246
46 *41:23 0.00264139
47 *41:21 0.00312942
48 *41:13 0.00846098
49 *41:9 0.0359532
50 *41:7 0.0292481
51 *41:5 0.0609744
52 *342:s2 *52:79 0.00322458
53 *343:s2 *343:start 2.89114e-05
54 *347:s2 *277:12 0
55 *41:13 *344:s3 0.0019426
56 *41:13 *52:13 0.00911982
57 *41:42 *52:75 0.00733218
58 *41:388 *260:11 0
59 *343:s1 *343:s2 8.03479e-05
60 *30:13 *41:13 0.00517148
61 *30:13 *41:21 0.00185148
62 *30:21 *41:21 0.000508721
63 *30:23 *41:23 0.00497935
64 *30:23 *41:27 0.000802323
65 *30:23 *41:42 6.63643e-05
66 *30:29 *343:s2 3.80953e-06
67 *30:31 *41:42 0.000387014
68 *30:46 *41:42 2.00751e-05
69 *30:46 *41:69 0.00232545
70 *30:50 *41:69 0.000888683
71 *30:67 *41:69 0.000660499
72 *30:67 *41:73 2.00751e-05
73 *30:67 *41:101 0.000752788
74 *30:71 *41:101 0.00198801
75 *30:73 *41:101 0.00168361
76 *30:93 *41:101 0.000125424
77 *30:107 *41:141 0.00391768
78 *30:146 *41:169 0.000820177
79 *30:146 *41:196 0.00676922
80 *30:161 *41:196 0.000643031
81 *30:161 *41:224 0.00692595
82 *30:172 *41:224 0.00048353
83 *30:172 *41:252 0.00442894
84 *30:180 *41:252 0.0014451
85 *30:197 *41:252 0.00048742
86 *30:197 *41:277 0.000815658
87 *30:197 *41:279 0.00121699
88 *30:199 *41:279 0.00418183
89 *30:216 *41:279 0.000900245
90 *30:216 *41:306 0.000974664
91 *30:218 *41:306 0.00135955
92 *30:218 *41:316 0.00236187
93 *30:233 *41:316 0.000254427
94 *30:268 *41:398 0.00616662
*RES
1 io_in[1] *41:5 188.514 
2 *41:5 *41:7 3.41 
3 *41:7 *41:9 601.804 
4 *41:9 *41:13 36.3915 
5 *41:13 *41:21 8.2322 
6 *41:21 *41:23 62.0536 
7 *41:23 *41:27 18.1161 
8 *41:27 *343:s2 35.2589 
9 *41:27 *41:42 104.098 
10 *41:42 *342:s2 32.3542 
11 *41:42 *41:69 91.8036 
12 *41:69 *41:73 1.67857 
13 *41:73 *341:s2 27.8625 
14 *41:73 *41:101 97.875 
15 *41:101 *340:s2 29.3339 
16 *41:101 *41:129 55.4107 
17 *41:129 *41:141 42.9142 
18 *41:141 *339:s2 11.4241 
19 *41:141 *41:163 48.4636 
20 *41:163 *41:167 6.77207 
21 *41:167 *41:169 53.5536 
22 *41:169 *41:189 40.9401 
23 *41:189 *338:s2 9.3 
24 *41:169 *41:196 92.4107 
25 *41:196 *352:s2 26.6699 
26 *41:196 *41:224 92.4107 
27 *41:224 *351:s2 24.8306 
28 *351:s2 *41:247 0.194444 
29 *41:224 *41:252 92.4107 
30 *41:252 *350:s2 16.0895 
31 *41:252 *41:277 20.6518 
32 *41:277 *41:279 88.9196 
33 *41:279 *349:s2 33.5341 
34 *41:279 *41:306 55.0357 
35 *41:306 *41:316 45.1406 
36 *41:316 *348:s2 11.0979 
37 *41:316 *41:336 36.3214 
38 *41:336 *41:346 48.5699 
39 *41:346 *347:s2 14.8118 
40 *347:s2 *41:380 9.82971 
41 *41:380 *41:382 82.0893 
42 *41:382 *41:388 12.3441 
43 *41:388 *41:390 111.232 
44 *41:390 *41:394 4.39387 
45 *41:394 *41:396 3.41 
46 *41:396 *41:398 79.6607 
47 *41:398 *337:s2 14.9714 
48 *41:394 *345:s2 24.2076 
49 *41:382 *346:s2 13.0268 
50 *41:13 *344:s2 21.1658 
*END

*D_NET *52 0.465307
*CONN
*P io_in[2] I
*I *346:s3 I *D sky130_osu_ring_oscillator_mpr2ca_8_b0r1
*I *337:s3 I *D sky130_osu_ring_oscillator_mpr2aa_8_b0r1
*I *345:s3 I *D sky130_osu_ring_oscillator_mpr2at_8_b0r1
*I *347:s3 I *D sky130_osu_ring_oscillator_mpr2ct_8_b0r1
*I *348:s3 I *D sky130_osu_ring_oscillator_mpr2ea_8_b0r1
*I *349:s3 I *D sky130_osu_ring_oscillator_mpr2et_8_b0r1
*I *350:s3 I *D sky130_osu_ring_oscillator_mpr2xa_8_b0r1
*I *351:s3 I *D sky130_osu_ring_oscillator_mpr2ya_8_b0r1
*I *352:s3 I *D sky130_osu_ring_oscillator_mpr2aa_8_b0r2
*I *338:s3 I *D sky130_osu_ring_oscillator_mpr2at_8_b0r2
*I *339:s3 I *D sky130_osu_ring_oscillator_mpr2ca_8_b0r2
*I *340:s3 I *D sky130_osu_ring_oscillator_mpr2ct_8_b0r2
*I *341:s3 I *D sky130_osu_ring_oscillator_mpr2ea_8_b0r2
*I *342:s3 I *D sky130_osu_ring_oscillator_mpr2et_8_b0r2
*I *343:s3 I *D sky130_osu_ring_oscillator_mpr2xa_8_b0r2
*I *344:s3 I *D sky130_osu_ring_oscillator_mpr2ya_8_b0r2
*CAP
1 io_in[2] 0.0573326
2 *346:s3 0.000660804
3 *337:s3 0.00263407
4 *345:s3 0.00212039
5 *347:s3 0.000742469
6 *348:s3 0.0025372
7 *349:s3 0.00218989
8 *350:s3 0.00193518
9 *351:s3 0.00191594
10 *352:s3 0.00243811
11 *338:s3 0.00241668
12 *339:s3 0.00206507
13 *340:s3 0.00203114
14 *341:s3 0.00247938
15 *342:s3 0.000571148
16 *343:s3 0.000685039
17 *344:s3 0.00210619
18 *52:479 0.00552206
19 *52:477 0.002888
20 *52:453 0.003172
21 *52:445 0.00374536
22 *52:443 0.00512222
23 *52:433 0.00358739
24 *52:429 0.00375663
25 *52:427 0.00325851
26 *52:406 0.00254844
27 *52:402 0.00529568
28 *52:400 0.00395603
29 *52:370 0.00300353
30 *52:368 0.00305575
31 *52:342 0.0057083
32 *52:334 0.0039404
33 *52:332 0.00543938
34 *52:302 0.00389682
35 *52:300 0.00220688
36 *52:272 0.00440804
37 *52:264 0.00321452
38 *52:236 0.00567481
39 *52:230 0.00340309
40 *52:228 0.00309568
41 *52:204 0.00280158
42 *52:200 0.00308656
43 *52:198 0.00360016
44 *52:169 0.00309651
45 *52:165 0.00292509
46 *52:163 0.00344567
47 *52:156 0
48 *52:137 0.00611973
49 *52:135 0.00366222
50 *52:109 0.00270653
51 *52:107 0.00463376
52 *52:105 0.00625401
53 *52:79 0.00440515
54 *52:75 0.00356649
55 *52:73 0.00371892
56 *52:45 0.00503476
57 *52:39 0.00483312
58 *52:37 0.0028496
59 *52:13 0.0150058
60 *52:11 0.0128996
61 *52:9 0.0206673
62 *52:7 0.0206673
63 *52:5 0.0573326
64 *338:s3 *314:9 0
65 *339:s3 *339:s4 0.00191424
66 *340:s3 *340:s4 0.00303638
67 *340:s3 *61:117 0.000184722
68 *345:s3 *300:15 0.000371636
69 *346:s3 *292:11 0
70 *348:s3 *348:s4 0
71 *348:s3 *61:335 0
72 *349:s3 *294:7 0
73 *349:s3 *310:11 0.000987359
74 *350:s3 *350:s4 0
75 *350:s3 *61:262 0.000671094
76 *351:s3 *296:10 0.000895546
77 *352:s3 *313:18 0.000131445
78 *52:39 *61:57 0.00112707
79 *52:39 *62:33 0.00613389
80 *52:39 *62:47 0.000602921
81 *52:39 *62:49 0
82 *52:107 *61:89 0
83 *52:107 *61:93 0
84 *52:107 *62:93 0
85 *52:137 *61:109 0
86 *52:137 *61:117 0
87 *52:137 *62:93 0.00301079
88 *52:137 *62:105 0.000613527
89 *52:137 *62:125 0
90 *52:137 *302:19 0
91 *52:137 *318:15 1.12323e-05
92 *52:163 *61:145 0
93 *52:165 *61:145 0.00197781
94 *52:165 *61:153 0.00115074
95 *52:165 *317:19 8.22793e-06
96 *52:169 *339:s4 0.000321337
97 *52:169 *61:176 0.000121508
98 *52:169 *62:147 0.000168408
99 *52:198 *335:data_in[9] 0.000370699
100 *52:198 *62:147 0
101 *52:200 *61:178 0.00513476
102 *52:200 *61:202 0.000976535
103 *52:200 *271:18 0.000442171
104 *52:200 *312:18 0
105 *52:200 *331:13 0
106 *52:204 *311:22 5.4345e-05
107 *52:204 *312:22 0.000258842
108 *52:204 *314:9 0
109 *52:230 *61:204 0.00682839
110 *52:230 *62:194 0
111 *52:230 *311:14 0
112 *52:264 *61:256 0.000459704
113 *52:264 *313:18 0.00265747
114 *52:272 *61:256 0.000480239
115 *52:272 *62:214 0.000117751
116 *52:272 *62:216 0.000282643
117 *52:300 *61:256 0.00261434
118 *52:300 *62:216 0.00442566
119 *52:300 *62:220 0.00087559
120 *52:300 *62:242 0.000146415
121 *52:300 *62:244 0
122 *52:332 *61:262 5.02092e-05
123 *52:334 *62:278 0
124 *52:334 *62:280 0.000893627
125 *52:334 *324:13 0
126 *52:342 *61:331 0.000162153
127 *52:342 *294:11 0.000230647
128 *52:342 *310:11 0.000321462
129 *52:368 *61:331 0.00378767
130 *52:368 *62:302 3.04851e-05
131 *52:368 *326:17 4.36671e-05
132 *52:400 *62:300 0.000402919
133 *52:400 *62:302 0
134 *52:400 *291:18 0
135 *52:402 *61:365 0.00311394
136 *52:402 *62:302 0
137 *52:402 *62:320 0.000242471
138 *52:402 *291:18 0
139 *52:402 *325:15 5.45706e-06
140 *52:406 *347:s4 0
141 *52:406 *61:365 0
142 *52:406 *260:17 0
143 *52:433 *292:11 0
144 *52:443 *62:320 0
145 *52:443 *62:336 0
146 *52:443 *260:11 0
147 *52:443 *291:18 0
148 *52:443 *292:11 0
149 *52:445 *61:420 0.00607711
150 *52:445 *62:336 0
151 *52:445 *62:340 0
152 *52:445 *291:18 0.000536381
153 *52:453 *61:420 0.000560692
154 *52:453 *62:340 8.13261e-05
155 *52:453 *300:15 0.000169152
156 *52:453 *323:16 2.06725e-05
157 *52:479 *337:s4 0.000110307
158 *52:479 *61:443 0.0030899
159 *342:s2 *52:79 0.00322458
160 *30:31 *52:75 0.00368179
161 *30:46 *52:75 0.000436699
162 *41:13 *344:s3 0.0019426
163 *41:13 *52:13 0.00911982
164 *41:42 *52:75 0.00733218
*RES
1 io_in[2] *52:5 165.813 
2 *52:5 *52:7 3.41 
3 *52:7 *52:9 425.125 
4 *52:9 *52:11 3.41 
5 *52:11 *52:13 47.611 
6 *52:13 *344:s3 28.0358 
7 *52:13 *52:37 3.41 
8 *52:37 *52:39 90.5893 
9 *52:39 *52:45 12.7765 
10 *52:45 *343:s3 18.1613 
11 *52:45 *52:73 16.1948 
12 *52:73 *52:75 89.9821 
13 *52:75 *52:79 11.8888 
14 *52:79 *342:s3 19.5535 
15 *52:79 *52:105 8.4296 
16 *52:105 *52:107 94.2321 
17 *52:107 *52:109 3.41 
18 *52:109 *341:s3 24.7196 
19 *52:109 *52:135 4.1056 
20 *52:135 *52:137 96.6607 
21 *52:137 *340:s3 30.2025 
22 *340:s3 *52:156 0.194444 
23 *52:137 *52:163 13.2321 
24 *52:163 *52:165 80.8571 
25 *52:165 *52:169 4.1056 
26 *52:169 *339:s3 25.5612 
27 *52:169 *52:198 23.379 
28 *52:198 *52:200 85.125 
29 *52:200 *52:204 4.89833 
30 *52:204 *338:s3 28.0406 
31 *52:204 *52:228 3.41 
32 *52:228 *52:230 93.625 
33 *52:230 *52:236 7.58767 
34 *52:236 *352:s3 32.3644 
35 *52:236 *52:264 79.0536 
36 *52:264 *52:272 10.0357 
37 *52:272 *351:s3 26.0634 
38 *52:272 *52:300 94.2321 
39 *52:300 *52:302 3.41 
40 *52:302 *350:s3 21.9268 
41 *52:302 *52:332 29.8014 
42 *52:332 *52:334 74.5893 
43 *52:334 *52:342 12.3645 
44 *52:342 *349:s3 32.1078 
45 *52:342 *52:368 89.375 
46 *52:368 *52:370 3.41 
47 *52:370 *348:s3 25.3636 
48 *52:370 *52:400 9.98124 
49 *52:400 *52:402 87.2679 
50 *52:402 *52:406 8.93407 
51 *52:406 *347:s3 17.8701 
52 *52:406 *52:427 3.41 
53 *52:427 *52:429 67 
54 *52:429 *52:433 9.67857 
55 *52:433 *52:443 23.8453 
56 *52:443 *52:445 86.375 
57 *52:445 *52:453 23.8435 
58 *52:453 *345:s3 25.1161 
59 *52:453 *52:477 3.41 
60 *52:477 *52:479 80.875 
61 *52:479 *337:s3 27.7065 
62 *52:433 *346:s3 17.5982 
*END

*D_NET *61 0.400237
*CONN
*P io_in[3] I
*I *337:s4 I *D sky130_osu_ring_oscillator_mpr2aa_8_b0r1
*I *345:s4 I *D sky130_osu_ring_oscillator_mpr2at_8_b0r1
*I *346:s4 I *D sky130_osu_ring_oscillator_mpr2ca_8_b0r1
*I *347:s4 I *D sky130_osu_ring_oscillator_mpr2ct_8_b0r1
*I *348:s4 I *D sky130_osu_ring_oscillator_mpr2ea_8_b0r1
*I *349:s4 I *D sky130_osu_ring_oscillator_mpr2et_8_b0r1
*I *350:s4 I *D sky130_osu_ring_oscillator_mpr2xa_8_b0r1
*I *351:s4 I *D sky130_osu_ring_oscillator_mpr2ya_8_b0r1
*I *352:s4 I *D sky130_osu_ring_oscillator_mpr2aa_8_b0r2
*I *338:s4 I *D sky130_osu_ring_oscillator_mpr2at_8_b0r2
*I *339:s4 I *D sky130_osu_ring_oscillator_mpr2ca_8_b0r2
*I *340:s4 I *D sky130_osu_ring_oscillator_mpr2ct_8_b0r2
*I *341:s4 I *D sky130_osu_ring_oscillator_mpr2ea_8_b0r2
*I *342:s4 I *D sky130_osu_ring_oscillator_mpr2et_8_b0r2
*I *343:s4 I *D sky130_osu_ring_oscillator_mpr2xa_8_b0r2
*I *344:s4 I *D sky130_osu_ring_oscillator_mpr2ya_8_b0r2
*CAP
1 io_in[3] 0.000854085
2 *337:s4 0.00123733
3 *345:s4 0.000960294
4 *346:s4 0.00152607
5 *347:s4 0.00186044
6 *348:s4 0.000582797
7 *349:s4 0.00141539
8 *350:s4 0.000496748
9 *351:s4 0.00130937
10 *352:s4 0.000345127
11 *338:s4 0.00136944
12 *339:s4 0.00138624
13 *340:s4 0.00166706
14 *341:s4 0.00116373
15 *342:s4 0.00121915
16 *343:s4 0.000161442
17 *344:s4 0.000441261
18 *61:443 0.00379187
19 *61:441 0.00255454
20 *61:424 0.00126336
21 *61:420 0.0019189
22 *61:418 0.00223925
23 *61:391 0.00523043
24 *61:389 0.00308096
25 *61:365 0.00356033
26 *61:359 0.00295103
27 *61:353 0.00416957
28 *61:351 0.00291844
29 *61:335 0.001466
30 *61:331 0.00381779
31 *61:329 0.00401803
32 *61:292 0.00295523
33 *61:286 0.00446402
34 *61:262 0.00296915
35 *61:256 0.00505137
36 *61:254 0.00542419
37 *61:232 0.00231385
38 *61:230 0.00318385
39 *61:210 0.00466489
40 *61:204 0.0042297
41 *61:202 0.00372927
42 *61:178 0.00320526
43 *61:176 0.00142396
44 *61:153 0.00233107
45 *61:145 0.00184695
46 *61:143 0.00112573
47 *61:117 0.00319724
48 *61:109 0.00480658
49 *61:107 0.00377815
50 *61:93 0.00219645
51 *61:89 0.0041277
52 *61:87 0.00473551
53 *61:61 0.00604015
54 *61:59 0.00368222
55 *61:57 0.00234131
56 *61:35 0.00250275
57 *61:33 0.00397041
58 *61:31 0.00397041
59 *61:13 0.0719627
60 *61:11 0.0715214
61 *61:9 0.0105664
62 *61:7 0.0114205
63 *337:s4 *300:7 0
64 *337:s4 *316:15 0
65 *338:s4 *299:15 0.000331823
66 *341:s4 *303:12 2.80684e-05
67 *341:s4 *319:7 0
68 *345:s4 *62:358 0.000850085
69 *345:s4 *300:15 0.000398004
70 *349:s4 *349:s5 0
71 *349:s4 *311:12 0
72 *351:s4 *313:16 0
73 *61:9 *62:9 0.00466624
74 *61:13 *62:13 0
75 *61:33 *305:7 0.000907364
76 *61:57 *343:s5 0.000489677
77 *61:57 *62:49 0
78 *61:61 *62:57 0
79 *61:61 *256:14 0
80 *61:87 *62:71 0
81 *61:87 *256:14 0
82 *61:107 *62:93 0.000613894
83 *61:109 *62:93 0
84 *61:109 *271:18 0
85 *61:117 *271:18 0
86 *61:117 *302:19 0.0012346
87 *61:145 *62:125 0.00250522
88 *61:153 *62:125 0.00213431
89 *61:153 *62:147 0.00088866
90 *61:153 *317:19 2.09826e-05
91 *61:176 *62:147 0.000321942
92 *61:178 *271:18 0.00612711
93 *61:202 *271:18 0.000985785
94 *61:204 *311:14 0
95 *61:204 *311:20 0
96 *61:210 *313:22 0.000436203
97 *61:256 *62:194 0.000676758
98 *61:256 *313:18 0.000543257
99 *61:262 *62:242 2.92862e-05
100 *61:292 *263:10 0
101 *61:292 *295:8 0
102 *61:329 *294:11 0.00020344
103 *61:329 *310:11 0.000285844
104 *61:331 *326:17 4.57192e-05
105 *61:365 *62:320 0
106 *61:365 *291:18 0
107 *61:391 *62:320 0
108 *61:391 *62:336 0
109 *61:391 *260:13 0.00540313
110 *61:418 *62:336 0
111 *61:420 *291:18 0.00511071
112 *61:420 *323:16 1.94879e-05
113 *61:424 *62:358 7.0351e-05
114 *61:424 *300:15 0.000243653
115 *339:s3 *339:s4 0.00191424
116 *340:s3 *340:s4 0.00303638
117 *340:s3 *61:117 0.000184722
118 *348:s3 *348:s4 0
119 *348:s3 *61:335 0
120 *350:s3 *350:s4 0
121 *350:s3 *61:262 0.000671094
122 *52:39 *61:57 0.00112707
123 *52:107 *61:89 0
124 *52:107 *61:93 0
125 *52:137 *61:109 0
126 *52:137 *61:117 0
127 *52:163 *61:145 0
128 *52:165 *61:145 0.00197781
129 *52:165 *61:153 0.00115074
130 *52:169 *339:s4 0.000321337
131 *52:169 *61:176 0.000121508
132 *52:200 *61:178 0.00513476
133 *52:200 *61:202 0.000976535
134 *52:230 *61:204 0.00682839
135 *52:264 *61:256 0.000459704
136 *52:272 *61:256 0.000480239
137 *52:300 *61:256 0.00261434
138 *52:332 *61:262 5.02092e-05
139 *52:342 *61:331 0.000162153
140 *52:368 *61:331 0.00378767