*SPEF "ieee 1481-1999"
*DESIGN "user_project_wrapper"
*DATE "11:11:11 Fri 11 11, 1111"
*VENDOR "OpenRCX"
*PROGRAM "Parallel Extraction"
*VERSION "1.0"
*DESIGN_FLOW "NAME_SCOPE LOCAL" "PIN_CAP NONE"
*DIVIDER /
*DELIMITER :
*BUS_DELIMITER []
*T_UNIT 1 NS
*C_UNIT 1 PF
*R_UNIT 1 OHM
*L_UNIT 1 HENRY

*NAME_MAP
*1 analog_io[0]
*2 analog_io[10]
*3 analog_io[11]
*4 analog_io[12]
*5 analog_io[13]
*6 analog_io[14]
*7 analog_io[15]
*8 analog_io[16]
*9 analog_io[17]
*10 analog_io[18]
*11 analog_io[19]
*12 analog_io[1]
*13 analog_io[20]
*14 analog_io[21]
*15 analog_io[22]
*16 analog_io[23]
*17 analog_io[24]
*18 analog_io[25]
*19 analog_io[26]
*20 analog_io[27]
*21 analog_io[28]
*22 analog_io[2]
*23 analog_io[3]
*24 analog_io[4]
*25 analog_io[5]
*26 analog_io[6]
*27 analog_io[7]
*28 analog_io[8]
*29 analog_io[9]
*30 io_in[0]
*31 io_in[10]
*32 io_in[11]
*33 io_in[12]
*34 io_in[13]
*35 io_in[14]
*36 io_in[15]
*37 io_in[16]
*38 io_in[17]
*39 io_in[18]
*40 io_in[19]
*41 io_in[1]
*42 io_in[20]
*43 io_in[21]
*44 io_in[22]
*45 io_in[23]
*46 io_in[24]
*47 io_in[25]
*48 io_in[26]
*49 io_in[27]
*50 io_in[28]
*51 io_in[29]
*52 io_in[2]
*53 io_in[30]
*54 io_in[31]
*55 io_in[32]
*56 io_in[33]
*57 io_in[34]
*58 io_in[35]
*59 io_in[36]
*60 io_in[37]
*61 io_in[3]
*62 io_in[4]
*63 io_in[5]
*64 io_in[6]
*65 io_in[7]
*66 io_in[8]
*67 io_in[9]
*68 io_oeb[0]
*69 io_oeb[10]
*70 io_oeb[11]
*71 io_oeb[12]
*72 io_oeb[13]
*73 io_oeb[14]
*74 io_oeb[15]
*75 io_oeb[16]
*76 io_oeb[17]
*77 io_oeb[18]
*78 io_oeb[19]
*79 io_oeb[1]
*80 io_oeb[20]
*81 io_oeb[21]
*82 io_oeb[22]
*83 io_oeb[23]
*84 io_oeb[24]
*85 io_oeb[25]
*86 io_oeb[26]
*87 io_oeb[27]
*88 io_oeb[28]
*89 io_oeb[29]
*90 io_oeb[2]
*91 io_oeb[30]
*92 io_oeb[31]
*93 io_oeb[32]
*94 io_oeb[33]
*95 io_oeb[34]
*96 io_oeb[35]
*97 io_oeb[36]
*98 io_oeb[37]
*99 io_oeb[3]
*100 io_oeb[4]
*101 io_oeb[5]
*102 io_oeb[6]
*103 io_oeb[7]
*104 io_oeb[8]
*105 io_oeb[9]
*106 io_out[0]
*107 io_out[10]
*108 io_out[11]
*109 io_out[12]
*110 io_out[13]
*111 io_out[14]
*112 io_out[15]
*113 io_out[16]
*114 io_out[17]
*115 io_out[18]
*116 io_out[19]
*117 io_out[1]
*118 io_out[20]
*119 io_out[21]
*120 io_out[22]
*121 io_out[23]
*122 io_out[24]
*123 io_out[25]
*124 io_out[26]
*125 io_out[27]
*126 io_out[28]
*127 io_out[29]
*128 io_out[2]
*129 io_out[30]
*130 io_out[31]
*131 io_out[32]
*132 io_out[33]
*133 io_out[34]
*134 io_out[35]
*135 io_out[36]
*136 io_out[37]
*137 io_out[3]
*138 io_out[4]
*139 io_out[5]
*140 io_out[6]
*141 io_out[7]
*142 io_out[8]
*143 io_out[9]
*146 wb_clk_i
*147 wb_rst_i
*148 wbs_ack_o
*149 wbs_adr_i[0]
*150 wbs_adr_i[10]
*151 wbs_adr_i[11]
*152 wbs_adr_i[12]
*153 wbs_adr_i[13]
*154 wbs_adr_i[14]
*155 wbs_adr_i[15]
*156 wbs_adr_i[16]
*157 wbs_adr_i[17]
*158 wbs_adr_i[18]
*159 wbs_adr_i[19]
*160 wbs_adr_i[1]
*161 wbs_adr_i[20]
*162 wbs_adr_i[21]
*163 wbs_adr_i[22]
*164 wbs_adr_i[23]
*165 wbs_adr_i[24]
*166 wbs_adr_i[25]
*167 wbs_adr_i[26]
*168 wbs_adr_i[27]
*169 wbs_adr_i[28]
*170 wbs_adr_i[29]
*171 wbs_adr_i[2]
*172 wbs_adr_i[30]
*173 wbs_adr_i[31]
*174 wbs_adr_i[3]
*175 wbs_adr_i[4]
*176 wbs_adr_i[5]
*177 wbs_adr_i[6]
*178 wbs_adr_i[7]
*179 wbs_adr_i[8]
*180 wbs_adr_i[9]
*181 wbs_cyc_i
*182 wbs_dat_i[0]
*183 wbs_dat_i[10]
*184 wbs_dat_i[11]
*185 wbs_dat_i[12]
*186 wbs_dat_i[13]
*187 wbs_dat_i[14]
*188 wbs_dat_i[15]
*189 wbs_dat_i[16]
*190 wbs_dat_i[17]
*191 wbs_dat_i[18]
*192 wbs_dat_i[19]
*193 wbs_dat_i[1]
*194 wbs_dat_i[20]
*195 wbs_dat_i[21]
*196 wbs_dat_i[22]
*197 wbs_dat_i[23]
*198 wbs_dat_i[24]
*199 wbs_dat_i[25]
*200 wbs_dat_i[26]
*201 wbs_dat_i[27]
*202 wbs_dat_i[28]
*203 wbs_dat_i[29]
*204 wbs_dat_i[2]
*205 wbs_dat_i[30]
*206 wbs_dat_i[31]
*207 wbs_dat_i[3]
*208 wbs_dat_i[4]
*209 wbs_dat_i[5]
*210 wbs_dat_i[6]
*211 wbs_dat_i[7]
*212 wbs_dat_i[8]
*213 wbs_dat_i[9]
*214 wbs_dat_o[0]
*215 wbs_dat_o[10]
*216 wbs_dat_o[11]
*217 wbs_dat_o[12]
*218 wbs_dat_o[13]
*219 wbs_dat_o[14]
*220 wbs_dat_o[15]
*221 wbs_dat_o[16]
*222 wbs_dat_o[17]
*223 wbs_dat_o[18]
*224 wbs_dat_o[19]
*225 wbs_dat_o[1]
*226 wbs_dat_o[20]
*227 wbs_dat_o[21]
*228 wbs_dat_o[22]
*229 wbs_dat_o[23]
*230 wbs_dat_o[24]
*231 wbs_dat_o[25]
*232 wbs_dat_o[26]
*233 wbs_dat_o[27]
*234 wbs_dat_o[28]
*235 wbs_dat_o[29]
*236 wbs_dat_o[2]
*237 wbs_dat_o[30]
*238 wbs_dat_o[31]
*239 wbs_dat_o[3]
*240 wbs_dat_o[4]
*241 wbs_dat_o[5]
*242 wbs_dat_o[6]
*243 wbs_dat_o[7]
*244 wbs_dat_o[8]
*245 wbs_dat_o[9]
*246 wbs_sel_i[0]
*247 wbs_sel_i[1]
*248 wbs_sel_i[2]
*249 wbs_sel_i[3]
*250 wbs_stb_i
*251 wbs_we_i
*252 x1\[0\]
*253 x1\[10\]
*254 x1\[11\]
*255 x1\[12\]
*256 x1\[13\]
*257 x1\[14\]
*258 x1\[15\]
*259 x1\[1\]
*260 x1\[2\]
*261 x1\[3\]
*262 x1\[4\]
*263 x1\[5\]
*264 x1\[6\]
*265 x1\[7\]
*266 x1\[8\]
*267 x1\[9\]
*268 x2\[0\]
*269 x2\[10\]
*270 x2\[11\]
*271 x2\[12\]
*272 x2\[13\]
*273 x2\[14\]
*274 x2\[15\]
*275 x2\[1\]
*276 x2\[2\]
*277 x2\[3\]
*278 x2\[4\]
*279 x2\[5\]
*280 x2\[6\]
*281 x2\[7\]
*282 x2\[8\]
*283 x2\[9\]
*284 x3\[0\]
*285 x3\[10\]
*286 x3\[11\]
*287 x3\[12\]
*288 x3\[13\]
*289 x3\[14\]
*290 x3\[15\]
*291 x3\[1\]
*292 x3\[2\]
*293 x3\[3\]
*294 x3\[4\]
*295 x3\[5\]
*296 x3\[6\]
*297 x3\[7\]
*298 x3\[8\]
*299 x3\[9\]
*300 x4\[0\]
*301 x4\[10\]
*302 x4\[11\]
*303 x4\[12\]
*304 x4\[13\]
*305 x4\[14\]
*306 x4\[15\]
*307 x4\[1\]
*308 x4\[2\]
*309 x4\[3\]
*310 x4\[4\]
*311 x4\[5\]
*312 x4\[6\]
*313 x4\[7\]
*314 x4\[8\]
*315 x4\[9\]
*316 x5\[0\]
*317 x5\[10\]
*318 x5\[11\]
*319 x5\[12\]
*320 x5\[13\]
*321 x5\[14\]
*322 x5\[15\]
*323 x5\[1\]
*324 x5\[2\]
*325 x5\[3\]
*326 x5\[4\]
*327 x5\[5\]
*328 x5\[6\]
*329 x5\[7\]
*330 x5\[8\]
*331 x5\[9\]
*332 mprj1
*333 mprj2
*334 mprj3
*335 mprj4
*336 mprj5
*337 ro1
*338 ro5
*339 ro7

*PORTS
analog_io[0] I
analog_io[10] I
analog_io[11] I
analog_io[12] I
analog_io[13] I
analog_io[14] I
analog_io[15] I
analog_io[16] I
analog_io[17] I
analog_io[18] I
analog_io[19] I
analog_io[1] I
analog_io[20] I
analog_io[21] I
analog_io[22] I
analog_io[23] I
analog_io[24] I
analog_io[25] I
analog_io[26] I
analog_io[27] I
analog_io[28] I
analog_io[2] I
analog_io[3] I
analog_io[4] I
analog_io[5] I
analog_io[6] I
analog_io[7] I
analog_io[8] I
analog_io[9] I
io_in[0] I
io_in[10] I
io_in[11] I
io_in[12] I
io_in[13] I
io_in[14] I
io_in[15] I
io_in[16] I
io_in[17] I
io_in[18] I
io_in[19] I
io_in[1] I
io_in[20] I
io_in[21] I
io_in[22] I
io_in[23] I
io_in[24] I
io_in[25] I
io_in[26] I
io_in[27] I
io_in[28] I
io_in[29] I
io_in[2] I
io_in[30] I
io_in[31] I
io_in[32] I
io_in[33] I
io_in[34] I
io_in[35] I
io_in[36] I
io_in[37] I
io_in[3] I
io_in[4] I
io_in[5] I
io_in[6] I
io_in[7] I
io_in[8] I
io_in[9] I
io_oeb[0] O
io_oeb[10] O
io_oeb[11] O
io_oeb[12] O
io_oeb[13] O
io_oeb[14] O
io_oeb[15] O
io_oeb[16] O
io_oeb[17] O
io_oeb[18] O
io_oeb[19] O
io_oeb[1] O
io_oeb[20] O
io_oeb[21] O
io_oeb[22] O
io_oeb[23] O
io_oeb[24] O
io_oeb[25] O
io_oeb[26] O
io_oeb[27] O
io_oeb[28] O
io_oeb[29] O
io_oeb[2] O
io_oeb[30] O
io_oeb[31] O
io_oeb[32] O
io_oeb[33] O
io_oeb[34] O
io_oeb[35] O
io_oeb[36] O
io_oeb[37] O
io_oeb[3] O
io_oeb[4] O
io_oeb[5] O
io_oeb[6] O
io_oeb[7] O
io_oeb[8] O
io_oeb[9] O
io_out[0] O
io_out[10] O
io_out[11] O
io_out[12] O
io_out[13] O
io_out[14] O
io_out[15] O
io_out[16] O
io_out[17] O
io_out[18] O
io_out[19] O
io_out[1] O
io_out[20] O
io_out[21] O
io_out[22] O
io_out[23] O
io_out[24] O
io_out[25] O
io_out[26] O
io_out[27] O
io_out[28] O
io_out[29] O
io_out[2] O
io_out[30] O
io_out[31] O
io_out[32] O
io_out[33] O
io_out[34] O
io_out[35] O
io_out[36] O
io_out[37] O
io_out[3] O
io_out[4] O
io_out[5] O
io_out[6] O
io_out[7] O
io_out[8] O
io_out[9] O
wb_clk_i I
wb_rst_i I
wbs_ack_o O
wbs_adr_i[0] I
wbs_adr_i[10] I
wbs_adr_i[11] I
wbs_adr_i[12] I
wbs_adr_i[13] I
wbs_adr_i[14] I
wbs_adr_i[15] I
wbs_adr_i[16] I
wbs_adr_i[17] I
wbs_adr_i[18] I
wbs_adr_i[19] I
wbs_adr_i[1] I
wbs_adr_i[20] I
wbs_adr_i[21] I
wbs_adr_i[22] I
wbs_adr_i[23] I
wbs_adr_i[24] I
wbs_adr_i[25] I
wbs_adr_i[26] I
wbs_adr_i[27] I
wbs_adr_i[28] I
wbs_adr_i[29] I
wbs_adr_i[2] I
wbs_adr_i[30] I
wbs_adr_i[31] I
wbs_adr_i[3] I
wbs_adr_i[4] I
wbs_adr_i[5] I
wbs_adr_i[6] I
wbs_adr_i[7] I
wbs_adr_i[8] I
wbs_adr_i[9] I
wbs_cyc_i I
wbs_dat_i[0] I
wbs_dat_i[10] I
wbs_dat_i[11] I
wbs_dat_i[12] I
wbs_dat_i[13] I
wbs_dat_i[14] I
wbs_dat_i[15] I
wbs_dat_i[16] I
wbs_dat_i[17] I
wbs_dat_i[18] I
wbs_dat_i[19] I
wbs_dat_i[1] I
wbs_dat_i[20] I
wbs_dat_i[21] I
wbs_dat_i[22] I
wbs_dat_i[23] I
wbs_dat_i[24] I
wbs_dat_i[25] I
wbs_dat_i[26] I
wbs_dat_i[27] I
wbs_dat_i[28] I
wbs_dat_i[29] I
wbs_dat_i[2] I
wbs_dat_i[30] I
wbs_dat_i[31] I
wbs_dat_i[3] I
wbs_dat_i[4] I
wbs_dat_i[5] I
wbs_dat_i[6] I
wbs_dat_i[7] I
wbs_dat_i[8] I
wbs_dat_i[9] I
wbs_dat_o[0] O
wbs_dat_o[10] O
wbs_dat_o[11] O
wbs_dat_o[12] O
wbs_dat_o[13] O
wbs_dat_o[14] O
wbs_dat_o[15] O
wbs_dat_o[16] O
wbs_dat_o[17] O
wbs_dat_o[18] O
wbs_dat_o[19] O
wbs_dat_o[1] O
wbs_dat_o[20] O
wbs_dat_o[21] O
wbs_dat_o[22] O
wbs_dat_o[23] O
wbs_dat_o[24] O
wbs_dat_o[25] O
wbs_dat_o[26] O
wbs_dat_o[27] O
wbs_dat_o[28] O
wbs_dat_o[29] O
wbs_dat_o[2] O
wbs_dat_o[30] O
wbs_dat_o[31] O
wbs_dat_o[3] O
wbs_dat_o[4] O
wbs_dat_o[5] O
wbs_dat_o[6] O
wbs_dat_o[7] O
wbs_dat_o[8] O
wbs_dat_o[9] O
wbs_sel_i[0] I
wbs_sel_i[1] I
wbs_sel_i[2] I
wbs_sel_i[3] I
wbs_stb_i I
wbs_we_i I

*D_NET *30 0.42898
*CONN
*P io_in[0] I
*I *337:s1 I *D sky130_osu_ring_oscillator_mpr2aa_8_b0r1
*I *338:s1 I *D sky130_osu_ring_oscillator_mpr2ea_8_b0r1
*I *339:s1 I *D sky130_osu_ring_oscillator_mpr2xa_8_b0r1
*CAP
1 io_in[0] 0.0168976
2 *337:s1 0.000659335
3 *338:s1 0.000477741
4 *339:s1 0.000924516
5 *30:55 0.0178358
6 *30:53 0.0179522
7 *30:32 0.00987244
8 *30:15 0.00954353
9 *30:13 0.0464246
10 *30:11 0.0464246
11 *30:9 0.0526847
12 *30:7 0.0526847
13 *30:5 0.0168976
14 *337:s1 *337:start 0.00019653
15 *338:s1 *338:start 3.58701e-05
16 *339:s1 *339:start 0.000143633
17 *30:9 *333:data_in[6] 0
18 *30:9 *41:9 0.117482
19 *30:9 *61:9 0.000219804
20 *30:13 *339:s4 0.000947678
21 *30:13 *41:13 0
22 *30:13 *61:13 0.019913
23 *30:13 *61:17 0.000761615
*RES
1 io_in[0] *30:5 52.3079 
2 *30:5 *30:7 3.41 
3 *30:7 *30:9 1621.8 
4 *30:9 *30:11 3.41 
5 *30:11 *30:13 173.8 
6 *30:13 *30:15 3.41 
7 *30:15 *339:s1 32.9696 
8 *30:15 *30:32 177.259 
9 *30:32 *338:s1 23.7018 
10 *30:32 *30:53 17.7229 
11 *30:53 *30:55 353.634 
12 *30:55 *337:s1 27.9741 
*END

*D_NET *41 0.521872
*CONN
*P io_in[1] I
*I *337:s2 I *D sky130_osu_ring_oscillator_mpr2aa_8_b0r1
*I *338:s2 I *D sky130_osu_ring_oscillator_mpr2ea_8_b0r1
*I *339:s2 I *D sky130_osu_ring_oscillator_mpr2xa_8_b0r1
*CAP
1 io_in[1] 0.016887
2 *337:s2 4.71814e-05
3 *338:s2 0.00149936
4 *339:s2 0.000505323
5 *41:82 0.00422501
6 *41:80 0.0042423
7 *41:78 0.010535
8 *41:76 0.0105444
9 *41:74 0.00278874
10 *41:72 0.00296334
11 *41:37 0.00867832
12 *41:15 0.00793274
13 *41:13 0.0348488
14 *41:11 0.0348488
15 *41:9 0.021509
16 *41:7 0.021509
17 *41:5 0.016887
18 *338:s2 *278:6 0
19 *41:9 *52:9 0.0081491
20 *41:9 *61:9 0.0884364
21 *41:13 *339:s3 0.000493839
22 *41:13 *52:13 0.106859
23 *41:37 *278:6 0
24 *41:82 *268:8 0
25 *30:9 *41:9 0.117482
26 *30:13 *41:13 0
*RES
1 io_in[1] *41:5 52.2358 
2 *41:5 *41:7 3.41 
3 *41:7 *41:9 1439.66 
4 *41:9 *41:11 3.41 
5 *41:11 *41:13 168.755 
6 *41:13 *41:15 3.41 
7 *41:15 *339:s2 18.9955 
8 *41:15 *41:37 152.786 
9 *41:37 *338:s2 25.7857 
10 *338:s2 *41:72 9.56756 
11 *41:72 *41:74 55.6786 
12 *41:74 *41:76 0.946429 
13 *41:76 *41:78 215.75 
14 *41:78 *41:80 1.35714 
15 *41:80 *41:82 86.375 
16 *41:82 *337:s2 1.02679 
*END

*D_NET *52 0.44018
*CONN
*P io_in[2] I
*I *337:s3 I *D sky130_osu_ring_oscillator_mpr2aa_8_b0r1
*I *338:s3 I *D sky130_osu_ring_oscillator_mpr2ea_8_b0r1
*I *339:s3 I *D sky130_osu_ring_oscillator_mpr2xa_8_b0r1
*CAP
1 io_in[2] 0.0180157
2 *337:s3 0.000178709
3 *338:s3 0.00155086
4 *339:s3 0.000480041
5 *52:62 0.0172903
6 *52:60 0.0173787
7 *52:35 0.00875382
8 *52:33 0.00747004
9 *52:13 0.0345365
10 *52:11 0.0340565
11 *52:9 0.0388976
12 *52:7 0.0388976
13 *52:5 0.0180157
14 *338:s3 *294:12 0
15 *52:9 *61:9 0.088388
16 *52:62 *284:12 0.000767822
17 *41:9 *52:9 0.0081491
18 *41:13 *339:s3 0.000493839
19 *41:13 *52:13 0.106859
*RES
1 io_in[2] *52:5 52.0917 
2 *52:5 *52:7 3.41 
3 *52:7 *52:9 1261.16 
4 *52:9 *52:11 3.41 
5 *52:11 *52:13 166.233 
6 *52:13 *339:s3 19.5616 
7 *52:13 *52:33 3.41 
8 *52:33 *52:35 153.393 
9 *52:35 *338:s3 26.3616 
10 *338:s3 *52:60 8.90366 
11 *52:60 *52:62 357.732 
12 *52:62 *337:s3 7.83929 
*END

*D_NET *61 0.406483
*CONN
*P io_in[3] I
*I *337:s4 I *D sky130_osu_ring_oscillator_mpr2aa_8_b0r1
*I *338:s4 I *D sky130_osu_ring_oscillator_mpr2ea_8_b0r1
*I *339:s4 I *D sky130_osu_ring_oscillator_mpr2xa_8_b0r1
*CAP
1 io_in[3] 0.0168856
2 *337:s4 0.00118817
3 *338:s4 0.0016815
4 *339:s4 0.00170202
5 *61:69 0.017959
6 *61:67 0.0170871
7 *61:39 0.0109043
8 *61:37 0.00890653
9 *61:17 0.00244003
10 *61:13 0.0424656
11 *61:11 0.0417276
12 *61:9 0.0138005
13 *61:7 0.0138005
14 *61:5 0.0168856
15 *337:s4 *300:12 3.18887e-05
16 *61:39 *62:66 0.000350794
17 *61:39 *268:14 0
18 *61:67 *268:14 0
19 *61:69 *268:14 0
20 *30:9 *61:9 0.000219804
21 *30:13 *339:s4 0.000947678
22 *30:13 *61:13 0.019913
23 *30:13 *61:17 0.000761615
24 *41:9 *61:9 0.0884364
25 *52:9 *61:9 0.088388
*RES
1 io_in[3] *61:5 52.1637 
2 *61:5 *61:7 3.41 
3 *61:7 *61:9 1091.77 
4 *61:9 *61:11 3.41 
5 *61:11 *61:13 157.477 
6 *61:13 *61:17 3.3699 
7 *61:17 *339:s4 30.0903 
8 *61:17 *61:37 3.41 
9 *61:37 *61:39 183.482 
10 *61:39 *338:s4 25.4208 
11 *61:39 *61:67 6.41071 
12 *61:67 *61:69 345.125 
13 *61:69 *337:s4 27.317 
*END

*D_NET *62 0.285171
*CONN
*P io_in[4] I
*I *337:s5 I *D sky130_osu_ring_oscillator_mpr2aa_8_b0r1
*I *338:s5 I *D sky130_osu_ring_oscillator_mpr2ea_8_b0r1
*I *339:s5 I *D sky130_osu_ring_oscillator_mpr2xa_8_b0r1
*CAP
1 io_in[4] 0.0690125
2 *337:s5 5.367e-05
3 *338:s5 0.00120112
4 *339:s5 0.000891207
5 *62:72 0.0147204
6 *62:70 0.0147413
7 *62:68 0.00279964
8 *62:66 0.00347653
9 *62:40 0.00924178
10 *62:38 0.00940045
11 *62:9 0.0452761
12 *62:7 0.0449932
13 *62:5 0.0690125
14 *339:s5 *328:9 0
15 *62:66 *268:14 0
16 *61:39 *62:66 0.000350794
*RES
1 io_in[4] *62:5 213.377 
2 *62:5 *62:7 3.41 
3 *62:7 *62:9 895.812 
4 *62:9 *339:s5 10.0446 
5 *339:s5 *62:38 18.4018 
6 *62:38 *62:40 179.688 
7 *62:40 *338:s5 8.87054 
8 *338:s5 *62:66 29.0134 
9 *62:66 *62:68 54.0089 
10 *62:68 *62:70 0.946429 
11 *62:70 *62:72 302 
12 *62:72 *337:s5 1.05804 
*END

*D_NET *63 0.263827
*CONN
*P io_in[5] I
*I *337:start I *D sky130_osu_ring_oscillator_mpr2aa_8_b0r1
*I *338:start I *D sky130_osu_ring_oscillator_mpr2ea_8_b0r1
*I *339:start I *D sky130_osu_ring_oscillator_mpr2xa_8_b0r1
*CAP
1 io_in[5] 0.00121804
2 *337:start 0.000624132
3 *338:start 0.000622782
4 *339:start 0.000642257
5 *63:41 0.0182716
6 *63:36 0
7 *63:29 0.0273492
8 *63:17 0.0444957
9 *63:15 0.0347745
10 *63:13 0.0671171
11 *63:11 0.0683352
12 *337:s1 *337:start 0.00019653
13 *338:s1 *338:start 3.58701e-05
14 *339:s1 *339:start 0.000143633
*RES
1 io_in[5] *63:11 16.305 
2 *63:11 *63:13 1284.43 
3 *63:13 *63:15 4.5 
4 *63:15 *63:17 716.554 
5 *63:17 *339:start 17.7857 
6 *63:17 *63:29 186.821 
7 *63:29 *338:start 16.9464 
8 *338:start *63:36 0.184211 
9 *63:29 *63:41 363.5 
10 *63:41 *337:start 17.808 
*END

*D_NET *64 0.11719
*CONN
*P io_in[6] I
*I *335:select[0] I *D mux16x1_project
*I *334:select[0] I *D mux16x1_project
*I *333:select[0] I *D mux16x1_project
*I *332:select[0] I *D mux16x1_project
*I *336:select[0] I *D mux16x1_project
*CAP
1 io_in[6] 0.0140897
2 *335:select[0] 7.44102e-05
3 *334:select[0] 7.44102e-05
4 *333:select[0] 9.06942e-05
5 *332:select[0] 0.000466051
6 *336:select[0] 0.000484073
7 *64:79 0.0084005
8 *64:77 0.00887591
9 *64:69 0.00154429
10 *64:57 0.00347299
11 *64:55 0.00319132
12 *64:49 0.00416525
13 *64:47 0.00409569
14 *64:45 0.00348315
15 *64:43 0.00348064
16 *64:41 0.00375848
17 *64:39 0.00381531
18 *64:37 0.00505529
19 *64:35 0.00529966
20 *64:29 0.00281359
21 *64:27 0.00342987
22 *64:15 0.00356082
23 *64:9 0.00621433
24 *64:7 0.0181544
25 *332:select[0] *65:87 0
26 *64:9 *336:select[3] 0
27 *64:15 *336:select[1] 0
28 *64:41 *65:47 0
29 *64:45 *65:47 0.00475771
30 *64:49 *65:47 0
31 *64:49 *65:63 0
32 *64:57 *65:63 0.00284905
33 *64:57 *65:71 0.000857684
34 *64:69 *65:71 0.000362646
35 *64:77 *333:select[1] 0
36 *64:77 *65:71 4.79063e-05
37 *64:77 *65:87 0.000224406
*RES
1 io_in[6] *64:7 47.0699 
2 *64:7 *64:9 80.875 
3 *64:9 *64:15 13.2809 
4 *64:15 *336:select[0] 9.92857 
5 *64:15 *64:27 18.8929 
6 *64:27 *64:29 49.8929 
7 *64:29 *64:35 7.58767 
8 *64:35 *64:37 102.732 
9 *64:37 *64:39 1.35714 
10 *64:39 *64:41 75.6964 
11 *64:41 *64:43 1.76786 
12 *64:43 *64:45 103.661 
13 *64:45 *64:47 1.76786 
14 *64:47 *64:49 80.875 
15 *64:49 *64:55 7.44353 
16 *64:55 *64:57 88.6161 
17 *64:57 *64:69 21.6339 
18 *64:69 *64:77 21.4301 
19 *64:77 *64:79 162.688 
20 *64:79 *332:select[0] 17.4732 
21 *64:69 *333:select[0] 1.91071 
22 *64:47 *334:select[0] 1.5 
23 *64:39 *335:select[0] 1.5 
*END

*D_NET *65 0.123613
*CONN
*P io_in[7] I
*I *335:select[1] I *D mux16x1_project
*I *332:select[1] I *D mux16x1_project
*I *333:select[1] I *D mux16x1_project
*I *334:select[1] I *D mux16x1_project
*I *336:select[1] I *D mux16x1_project
*CAP
1 io_in[7] 0.00165481
2 *335:select[1] 0.000574818
3 *332:select[1] 0.00132139
4 *333:select[1] 0.00134689
5 *334:select[1] 0.00140797
6 *336:select[1] 0.00214827
7 *65:87 0.00993354
8 *65:71 0.0116741
9 *65:63 0.00726741
10 *65:47 0.0139536
11 *65:45 0.00804453
12 *65:41 0.00394117
13 *65:19 0.0103741
14 *65:17 0.00839909
15 *65:13 0.0152013
16 *65:11 0.0143677
17 *336:select[1] *336:select[2] 0.00150321
18 *336:select[1] *336:select[3] 0.000239977
19 *65:19 *67:75 0
20 *65:19 *106:9 0
21 *65:19 *106:19 0
22 *65:41 *335:select[2] 0.000324408
23 *65:41 *66:33 0.000140534
24 *65:41 *106:19 0.000694531
25 *332:select[0] *65:87 0
26 *64:15 *336:select[1] 0
27 *64:41 *65:47 0
28 *64:45 *65:47 0.00475771
29 *64:49 *65:47 0
30 *64:49 *65:63 0
31 *64:57 *65:63 0.00284905
32 *64:57 *65:71 0.000857684
33 *64:69 *65:71 0.000362646
34 *64:77 *333:select[1] 0
35 *64:77 *65:71 4.79063e-05
36 *64:77 *65:87 0.000224406
*RES
1 io_in[7] *65:11 25.3846 
2 *65:11 *65:13 39.4675 
3 *65:13 *65:17 3.96147 
4 *65:17 *65:19 168.911 
5 *65:19 *336:select[1] 25.9876 
6 *65:13 *65:41 21.8339 
7 *65:41 *65:45 6.12347 
8 *65:45 *65:47 177.411 
9 *65:47 *334:select[1] 18.3543 
10 *65:47 *65:63 134.518 
11 *65:63 *65:71 45.8393 
12 *65:71 *333:select[1] 18.1381 
13 *65:71 *65:87 178.625 
14 *65:87 *332:select[1] 18.1381 
15 *65:41 *335:select[1] 15.2671 
*END

*D_NET *66 0.117113
*CONN
*P io_in[8] I
*I *332:select[2] I *D mux16x1_project
*I *333:select[2] I *D mux16x1_project
*I *336:select[2] I *D mux16x1_project
*I *335:select[2] I *D mux16x1_project
*I *334:select[2] I *D mux16x1_project
*CAP
1 io_in[8] 0.0146824
2 *332:select[2] 0.00159021
3 *333:select[2] 0.00148162
4 *336:select[2] 0.00114014
5 *335:select[2] 0.00116111
6 *334:select[2] 0.00161299
7 *66:85 0.0102495
8 *66:83 0.00865932
9 *66:69 0.00159293
10 *66:65 0.00704639
11 *66:49 0.00948788
12 *66:47 0.00834774
13 *66:33 0.00151568
14 *66:29 0.00908277
15 *66:27 0.0087282
16 *66:13 0.00357705
17 *66:7 0.0235816
18 *333:select[2] *67:21 0.000756284
19 *336:select[2] *336:select[3] 6.8293e-05
20 *66:13 *106:29 0
21 *66:49 *336:select[3] 5.51718e-05
22 *66:49 *67:59 0.000364436
23 *66:49 *67:73 1.0562e-05
24 *66:65 *67:13 2.69575e-05
25 *66:65 *106:29 0
26 *66:65 *106:39 0
27 *66:69 *67:21 0.000325423
28 *66:85 *67:11 0
29 *66:85 *67:13 0
30 *66:85 *67:91 0
31 *336:select[1] *336:select[2] 0.00150321
32 *65:41 *335:select[2] 0.000324408
33 *65:41 *66:33 0.000140534
*RES
1 io_in[8] *66:7 45.9889 
2 *66:7 *66:13 40.515 
3 *66:13 *334:select[2] 15.4685 
4 *66:13 *66:27 3.41 
5 *66:27 *66:29 179.232 
6 *66:29 *66:33 4.46593 
7 *66:33 *335:select[2] 14.4596 
8 *66:33 *66:47 3.41 
9 *66:47 *66:49 174.375 
10 *66:49 *336:select[2] 22.1196 
11 *66:7 *66:65 142.804 
12 *66:65 *66:69 3.96147 
13 *66:69 *333:select[2] 16.0756 
14 *66:69 *66:83 3.41 
15 *66:83 *66:85 178.018 
16 *66:85 *332:select[2] 18.8785 
*END

*D_NET *67 0.103251
*CONN
*P io_in[9] I
*I *332:select[3] I *D mux16x1_project
*I *336:select[3] I *D mux16x1_project
*I *335:select[3] I *D mux16x1_project
*I *334:select[3] I *D mux16x1_project
*I *333:select[3] I *D mux16x1_project
*CAP
1 io_in[9] 0.0137156
2 *332:select[3] 0.00063472
3 *336:select[3] 0.00111785
4 *335:select[3] 9.34891e-05
5 *334:select[3] 0.000113585
6 *333:select[3] 9.07747e-05
7 *67:91 0.00421413
8 *67:75 0.00915487
9 *67:73 0.00844426
10 *67:59 0.00142656
11 *67:51 0.00720856
12 *67:49 0.00762964
13 *67:39 0.00227625
14 *67:35 0.00708373
15 *67:33 0.00793044
16 *67:21 0.00271036
17 *67:13 0.0051289
18 *67:11 0.00465357
19 *67:7 0.0177768
20 *67:11 *106:39 0
21 *67:13 *106:39 0
22 *67:91 *106:39 0
23 *333:select[2] *67:21 0.000756284
24 *336:select[1] *336:select[3] 0.000239977
25 *336:select[2] *336:select[3] 6.8293e-05
26 *64:9 *336:select[3] 0
27 *65:19 *67:75 0
28 *66:49 *336:select[3] 5.51718e-05
29 *66:49 *67:59 0.000364436
30 *66:49 *67:73 1.0562e-05
31 *66:65 *67:13 2.69575e-05
32 *66:69 *67:21 0.000325423
33 *66:85 *67:11 0
34 *66:85 *67:13 0
35 *66:85 *67:91 0
*RES
1 io_in[9] *67:7 45.9889 
2 *67:7 *67:11 9.91071 
3 *67:11 *67:13 86 
4 *67:13 *67:21 19.1151 
5 *67:21 *333:select[3] 1.91071 
6 *67:21 *67:33 34.375 
7 *67:33 *67:35 129.5 
8 *67:35 *67:39 16.6071 
9 *67:39 *334:select[3] 2.32143 
10 *67:39 *67:49 27.8393 
11 *67:49 *67:51 129.5 
12 *67:51 *67:59 21.4464 
13 *67:59 *335:select[3] 1.91071 
14 *67:59 *67:73 16.3839 
15 *67:73 *67:75 165.116 
16 *67:75 *336:select[3] 23.485 
17 *67:7 *67:91 73.4375 
18 *67:91 *332:select[3] 20.7589 
*END

*D_NET *106 0.203311
*CONN
*P io_out[0] O
*I *332:y O *D mux16x1_project
*I *333:y O *D mux16x1_project
*I *334:y O *D mux16x1_project
*I *335:y O *D mux16x1_project
*I *336:y O *D mux16x1_project
*CAP
1 io_out[0] 0.0133737
2 *332:y 0.000605762
3 *333:y 0.000594814
4 *334:y 0.000594814
5 *335:y 0.000640664
6 *336:y 0.000584734
7 *106:53 0.0635189
8 *106:51 0.0503185
9 *106:39 0.00929438
10 *106:29 0.0179666
11 *106:19 0.0178235
12 *106:9 0.017864
13 *106:7 0.00867778
14 *106:5 0.000758035
15 *65:19 *106:9 0
16 *65:19 *106:19 0
17 *65:41 *106:19 0.000694531
18 *66:13 *106:29 0
19 *66:65 *106:29 0
20 *66:65 *106:39 0
21 *67:11 *106:39 0
22 *67:13 *106:39 0
23 *67:91 *106:39 0
*RES
1 *336:y *106:5 1.71707 
2 *106:5 *106:7 3.41 
3 *106:7 *106:9 178.625 
4 *106:9 *335:y 5.12707 
5 *106:9 *106:19 178.625 
6 *106:19 *334:y 5.12707 
7 *106:19 *106:29 178.625 
8 *106:29 *333:y 5.12707 
9 *106:29 *106:39 178.625 
10 *106:39 *332:y 5.12707 
11 *106:5 *106:51 3.96147 
12 *106:51 *106:53 1032.27 
13 *106:53 io_out[0] 44.9079 
*END

*D_NET *252 0.12838
*CONN
*I *332:data_in[0] I *D mux16x1_project
*I *337:X1_Y1 O *D sky130_osu_ring_oscillator_mpr2aa_8_b0r1
*CAP
1 *332:data_in[0] 0.00112581
2 *337:X1_Y1 8.54113e-05
3 *252:18 0.0493381
4 *252:16 0.0482123
5 *252:14 0.012563
6 *252:12 0.0147664
7 *252:8 0.0022888
8 *332:data_in[0] *300:18 0
*RES
1 *337:X1_Y1 *252:8 15.3134 
2 *252:8 *252:12 45.2411 
3 *252:12 *252:14 259.027 
4 *252:14 *252:16 4.5 
5 *252:16 *252:18 961.607 
6 *252:18 *332:data_in[0] 16.2329 
*END

*D_NET *262 0.108702
*CONN
*I *332:data_in[4] I *D mux16x1_project
*I *338:X1_Y1 O *D sky130_osu_ring_oscillator_mpr2ea_8_b0r1
*CAP
1 *332:data_in[4] 0.000552653
2 *338:X1_Y1 0.000535301
3 *262:14 0.0021928
4 *262:10 0.0523602
5 *262:8 0.0512553
6 *262:14 *264:26 0.00102732
7 *262:14 *268:22 0.000778536
8 *262:14 *284:18 0
*RES
1 *338:X1_Y1 *262:8 19.8571 
2 *262:8 *262:10 969 
3 *262:10 *262:14 48.7946 
4 *262:14 *332:data_in[4] 5.055 
*END

*D_NET *264 0.203922
*CONN
*I *332:data_in[6] I *D mux16x1_project
*I *339:X1_Y1 O *D sky130_osu_ring_oscillator_mpr2xa_8_b0r1
*CAP
1 *332:data_in[6] 0.000563773
2 *339:X1_Y1 0.00129633
3 *264:26 0.00417012
4 *264:24 0.00360634
5 *264:22 0.0307729
6 *264:20 0.0320692
7 *264:20 *280:14 2.08464e-05
8 *264:20 *280:16 2.44318e-05
9 *264:22 *280:16 0.101705
10 *264:26 *333:data_in[6] 0.00310605
11 *264:26 *268:22 0.00976367
12 *264:26 *284:18 0.00119885
13 *264:26 *294:18 0.0145855
14 *264:26 *310:18 1.08359e-05
15 *262:14 *264:26 0.00102732
*RES
1 *339:X1_Y1 *264:20 43.9295 
2 *264:20 *264:22 955.036 
3 *264:22 *264:24 4.5 
4 *264:24 *264:26 216.723 
5 *264:26 *332:data_in[6] 5.19913 
*END

*D_NET *268 0.154108
*CONN
*I *333:data_in[0] I *D mux16x1_project
*I *337:X2_Y1 O *D sky130_osu_ring_oscillator_mpr2aa_8_b0r1
*CAP
1 *333:data_in[0] 0.000565338
2 *337:X2_Y1 0.000731185
3 *268:22 0.00404196
4 *268:20 0.00347663
5 *268:18 0.0472544
6 *268:16 0.0472544
7 *268:14 0.0170577
8 *268:12 0.0170577
9 *268:10 0.00243957
10 *268:8 0.00317076
11 *268:10 *284:12 0
12 *268:10 *300:14 0
13 *268:18 *326:9 0.000516152
14 *41:82 *268:8 0
15 *61:39 *268:14 0
16 *61:67 *268:14 0
17 *61:69 *268:14 0
18 *62:66 *268:14 0
19 *262:14 *268:22 0.000778536
20 *264:26 *268:22 0.00976367
*RES
1 *337:X2_Y1 *268:8 23.9732 
2 *268:8 *268:10 47.3571 
3 *268:10 *268:12 4.5 
4 *268:12 *268:14 350.75 
5 *268:14 *268:16 4.5 
6 *268:16 *268:18 907.804 
7 *268:18 *268:20 4.5 
8 *268:20 *268:22 119.58 
9 *268:22 *333:data_in[0] 5.12707 
*END

*D_NET *278 0.115254
*CONN
*I *333:data_in[4] I *D mux16x1_project
*I *338:X2_Y1 O *D sky130_osu_ring_oscillator_mpr2ea_8_b0r1
*CAP
1 *333:data_in[4] 0.00108441
2 *338:X2_Y1 0
3 *278:10 0.0506968
4 *278:8 0.0496124
5 *278:6 0.00693033
6 *278:4 0.00693033
7 *333:data_in[4] *300:18 0
8 *338:s2 *278:6 0
9 *41:37 *278:6 0
*RES
1 *338:X2_Y1 *278:4 4.5 
2 *278:4 *278:6 140.179 
3 *278:6 *278:8 4.5 
4 *278:8 *278:10 949.286 
5 *278:10 *333:data_in[4] 15.6258 
*END

*D_NET *280 0.171163
*CONN
*I *333:data_in[6] I *D mux16x1_project
*I *339:X2_Y1 O *D sky130_osu_ring_oscillator_mpr2xa_8_b0r1
*CAP
1 *333:data_in[6] 0.0017819
2 *339:X2_Y1 0.000552338
3 *280:16 0.0325952
4 *280:14 0.0313656
5 *333:data_in[6] *294:18 1.08359e-05
6 *30:9 *333:data_in[6] 0
7 *264:20 *280:14 2.08464e-05
8 *264:20 *280:16 2.44318e-05
9 *264:22 *280:16 0.101705
10 *264:26 *333:data_in[6] 0.00310605
*RES
1 *339:X2_Y1 *280:14 28.8491 
2 *280:14 *280:16 955.857 
3 *280:16 *333:data_in[6] 48.1539 
*END

*D_NET *284 0.265818
*CONN
*I *334:data_in[0] I *D mux16x1_project
*I *337:X3_Y1 O *D sky130_osu_ring_oscillator_mpr2aa_8_b0r1
*CAP
1 *334:data_in[0] 0.000672075
2 *337:X3_Y1 0.00086756
3 *284:18 0.0147921
4 *284:16 0.01412
5 *284:14 0.0294389
6 *284:12 0.0303065
7 *284:14 *300:14 0.0978214
8 *284:18 *300:18 0.0527436
9 *284:18 *310:18 0.0230896
10 *52:62 *284:12 0.000767822
11 *262:14 *284:18 0
12 *264:26 *284:18 0.00119885
13 *268:10 *284:12 0
*RES
1 *337:X3_Y1 *284:12 31.8929 
2 *284:12 *284:14 933.884 
3 *284:14 *284:16 4.5 
4 *284:16 *284:18 646.58 
5 *284:18 *334:data_in[0] 5.41533 
*END

*D_NET *294 0.212141
*CONN
*I *334:data_in[4] I *D mux16x1_project
*I *338:X3_Y1 O *D sky130_osu_ring_oscillator_mpr2ea_8_b0r1
*CAP
1 *334:data_in[4] 0.000598164
2 *338:X3_Y1 0.00104261
3 *294:18 0.00677144
4 *294:16 0.00617327
5 *294:14 0.0309743
6 *294:12 0.0320169
7 *294:14 *310:12 0
8 *294:14 *310:14 0.0949222
9 *294:18 *310:18 0.0250455
10 *333:data_in[6] *294:18 1.08359e-05
11 *338:s3 *294:12 0
12 *264:26 *294:18 0.0145855
*RES
1 *338:X3_Y1 *294:12 29.7768 
2 *294:12 *294:14 934.705 
3 *294:14 *294:16 4.5 
4 *294:16 *294:18 307.188 
5 *294:18 *334:data_in[4] 5.2712 
*END

*D_NET *296 0.114257
*CONN
*I *334:data_in[6] I *D mux16x1_project
*I *339:X3_Y1 O *D sky130_osu_ring_oscillator_mpr2xa_8_b0r1
*CAP
1 *334:data_in[6] 0.00114524
2 *339:X3_Y1 0.00131856
3 *296:14 0.050115
4 *296:12 0.0489698
5 *296:10 0.00569499
6 *296:8 0.00701355
7 *334:data_in[6] *300:18 0
*RES
1 *339:X3_Y1 *296:8 31.4018 
2 *296:8 *296:10 117.384 
3 *296:10 *296:12 4.5 
4 *296:12 *296:14 936.964 
5 *296:14 *334:data_in[6] 15.3222 
*END

*D_NET *300 0.271287
*CONN
*I *335:data_in[0] I *D mux16x1_project
*I *337:X4_Y1 O *D sky130_osu_ring_oscillator_mpr2aa_8_b0r1
*CAP
1 *335:data_in[0] 0.000682541
2 *337:X4_Y1 0.000937543
3 *300:18 0.0263437
4 *300:16 0.0256611
5 *300:14 0.0289748
6 *300:12 0.0299124
7 *300:18 *310:18 0.00817751
8 *332:data_in[0] *300:18 0
9 *333:data_in[4] *300:18 0
10 *334:data_in[6] *300:18 0
11 *337:s4 *300:12 3.18887e-05
12 *268:10 *300:14 0
13 *284:14 *300:14 0.0978214
14 *284:18 *300:18 0.0527436
*RES
1 *337:X4_Y1 *300:12 37.2598 
2 *300:12 *300:14 924.643 
3 *300:14 *300:16 4.5 
4 *300:16 *300:18 825.384 
5 *300:18 *335:data_in[0] 5.4874 
*END

*D_NET *310 0.235295
*CONN
*I *335:data_in[4] I *D mux16x1_project
*I *338:X4_Y1 O *D sky130_osu_ring_oscillator_mpr2ea_8_b0r1
*CAP
1 *335:data_in[4] 0.000619627
2 *338:X4_Y1 0.000734821
3 *310:18 0.0107998
4 *310:16 0.0101802
5 *310:14 0.0286544
6 *310:12 0.0304901
7 *310:8 0.00257053
8 *264:26 *310:18 1.08359e-05
9 *284:18 *310:18 0.0230896
10 *294:14 *310:12 0
11 *294:14 *310:14 0.0949222
12 *294:18 *310:18 0.0250455
13 *300:18 *310:18 0.00817751
*RES
1 *338:X4_Y1 *310:8 23.8036 
2 *310:8 *310:12 34.4196 
3 *310:12 *310:14 891.17 
4 *310:14 *310:16 4.5 
5 *310:16 *310:18 485.991 
6 *310:18 *335:data_in[4] 5.34327 
*END

*D_NET *312 0.130042
*CONN
*I *335:data_in[6] I *D mux16x1_project
*I *339:X4_Y1 O *D sky130_osu_ring_oscillator_mpr2xa_8_b0r1
*CAP
1 *335:data_in[6] 0.00105858
2 *339:X4_Y1 0.00095449
3 *312:18 0.0490533
4 *312:16 0.0479947
5 *312:14 0.015013
6 *312:12 0.0159675
*RES
1 *339:X4_Y1 *312:12 32.0536 
2 *312:12 *312:14 309.161 
3 *312:14 *312:16 4.5 
4 *312:16 *312:18 918.482 
5 *312:18 *335:data_in[6] 15.3222 
*END

*D_NET *316 0.213053
*CONN
*I *336:data_in[0] I *D mux16x1_project
*I *337:X5_Y1 O *D sky130_osu_ring_oscillator_mpr2aa_8_b0r1
*CAP
1 *336:data_in[0] 0.0010758
2 *337:X5_Y1 0.000682997
3 *316:15 0.0460004
4 *316:13 0.0449246
5 *316:11 0.0409587
6 *316:9 0.0416417
7 *316:11 *328:11 0.0377686
*RES
1 *337:X5_Y1 *316:9 17.2679 
2 *316:9 *316:11 1014.05 
3 *316:11 *316:13 4.5 
4 *316:13 *316:15 896.714 
5 *316:15 *336:data_in[0] 15.6258 
*END

*D_NET *326 0.162849
*CONN
*I *336:data_in[4] I *D mux16x1_project
*I *338:X5_Y1 O *D sky130_osu_ring_oscillator_mpr2ea_8_b0r1
*CAP
1 *336:data_in[4] 0.00112562
2 *338:X5_Y1 0.000645311
3 *326:15 0.0476234
4 *326:13 0.0464978