* NGSPICE file created from user_project_wrapper.ext - technology: sky130A

.subckt sky130_ef_sc_hd__decap_12 VGND VPWR
X0 VPWR VGND VPWR sky130_fd_pr__pfet_01v8_hvt ad=0.2262 pd=2.26 as=0 ps=0 w=0.87 l=4.73
X1 VGND VPWR VGND sky130_fd_pr__nfet_01v8 ad=0.143 pd=1.62 as=0 ps=0 w=0.55 l=4.73
.ends

.subckt sky130_fd_sc_hd__decap_4 VGND VPWR
X0 VPWR VGND VPWR sky130_fd_pr__pfet_01v8_hvt ad=0.2262 pd=2.26 as=0 ps=0 w=0.87 l=1.05
X1 VGND VPWR VGND sky130_fd_pr__nfet_01v8 ad=0.143 pd=1.62 as=0 ps=0 w=0.55 l=1.05
.ends

.subckt sky130_fd_sc_hd__buf_12 VGND VPWR A X
X0 VGND a_109_47# X sky130_fd_pr__nfet_01v8 ad=0.08775 pd=0.92 as=0.08775 ps=0.92 w=0.65 l=0.15 M=12
X1 X a_109_47# VPWR sky130_fd_pr__pfet_01v8_hvt ad=0.135 pd=1.27 as=0.135 ps=1.27 w=1 l=0.15 M=12
X2 VPWR A a_109_47# sky130_fd_pr__pfet_01v8_hvt ad=0.135 pd=1.27 as=0.135 ps=1.27 w=1 l=0.15 M=4
X3 VGND A a_109_47# sky130_fd_pr__nfet_01v8 ad=0.08775 pd=0.92 as=0.08775 ps=0.92 w=0.65 l=0.15 M=4
.ends

.subckt sky130_fd_sc_hd__decap_3 VPWR VGND
X0 VPWR VGND VPWR sky130_fd_pr__pfet_01v8_hvt ad=0.2262 pd=2.26 as=0 ps=0 w=0.87 l=0.59
X1 VGND VPWR VGND sky130_fd_pr__nfet_01v8 ad=0.143 pd=1.62 as=0 ps=0 w=0.55 l=0.59
.ends

.subckt sky130_fd_sc_hd__decap_6 VPWR VGND
X0 VPWR VGND VPWR sky130_fd_pr__pfet_01v8_hvt ad=0.2262 pd=2.26 as=0 ps=0 w=0.87 l=1.97
X1 VGND VPWR VGND sky130_fd_pr__nfet_01v8 ad=0.143 pd=1.62 as=0 ps=0 w=0.55 l=1.97
.ends

* Black-box entry subcircuit for sky130_fd_sc_hd__fill_1 abstract view
.subckt sky130_fd_sc_hd__fill_1  
.ends

* Black-box entry subcircuit for sky130_fd_sc_hd__fill_2 abstract view
.subckt sky130_fd_sc_hd__fill_2  
.ends

.subckt sky130_fd_sc_hd__decap_8 VPWR VGND
X0 VPWR VGND VPWR sky130_fd_pr__pfet_01v8_hvt ad=0.2262 pd=2.26 as=0 ps=0 w=0.87 l=2.89
X1 VGND VPWR VGND sky130_fd_pr__nfet_01v8 ad=0.143 pd=1.62 as=0 ps=0 w=0.55 l=2.89
.ends

.subckt sky130_fd_sc_hd__a21oi_2 VGND VPWR A2 A1 Y B1
X0 VGND A2 a_285_47# sky130_fd_pr__nfet_01v8 ad=0.10725 pd=0.98 as=0.06825 ps=0.86 w=0.65 l=0.15
X1 VGND B1 Y sky130_fd_pr__nfet_01v8 ad=0.26 pd=2.1 as=0.08775 ps=0.92 w=0.65 l=0.15 M=2
X2 Y A1 a_114_47# sky130_fd_pr__nfet_01v8 ad=0.091 pd=0.93 as=0.089375 ps=0.925 w=0.65 l=0.15
X3 a_114_47# A2 VGND sky130_fd_pr__nfet_01v8 ad=0.089375 pd=0.925 as=0.18525 ps=1.87 w=0.65 l=0.15
X4 a_27_297# B1 Y sky130_fd_pr__pfet_01v8_hvt ad=0.36 pd=2.72 as=0.135 ps=1.27 w=1 l=0.15 M=2
X5 a_27_297# A1 VPWR sky130_fd_pr__pfet_01v8_hvt ad=0.14 pd=1.28 as=0.14 ps=1.28 w=1 l=0.15 M=2
X6 VPWR A2 a_27_297# sky130_fd_pr__pfet_01v8_hvt ad=0.14 pd=1.28 as=0.28 ps=2.56 w=1 l=0.15 M=2
X7 a_285_47# A1 Y sky130_fd_pr__nfet_01v8 ad=0.06825 pd=0.86 as=0.091 ps=0.93 w=0.65 l=0.15
.ends

.subckt sky130_fd_sc_hd__nor2_1 VGND VPWR A B Y
X0 VPWR A a_109_297# sky130_fd_pr__pfet_01v8_hvt ad=0.26 pd=2.52 as=0.105 ps=1.21 w=1 l=0.15
X1 VGND A Y sky130_fd_pr__nfet_01v8 ad=0.169 pd=1.82 as=0.08775 ps=0.92 w=0.65 l=0.15
X2 a_109_297# B Y sky130_fd_pr__pfet_01v8_hvt ad=0.105 pd=1.21 as=0.26 ps=2.52 w=1 l=0.15
X3 Y B VGND sky130_fd_pr__nfet_01v8 ad=0.08775 pd=0.92 as=0.169 ps=1.82 w=0.65 l=0.15
.ends

.subckt sky130_fd_sc_hd__mux2_1 VGND VPWR X A1 S A0
X0 VPWR a_505_21# a_535_374# sky130_fd_pr__pfet_01v8_hvt ad=0.0693 pd=0.75 as=0.0441 ps=0.63 w=0.42 l=0.15
X1 a_505_21# S VPWR sky130_fd_pr__pfet_01v8_hvt ad=0.1176 pd=1.4 as=0.0693 ps=0.75 w=0.42 l=0.15
X2 a_218_374# S VPWR sky130_fd_pr__pfet_01v8_hvt ad=0.07665 pd=0.785 as=0.15835 ps=1.395 w=0.42 l=0.15
X3 VGND a_505_21# a_439_47# sky130_fd_pr__nfet_01v8 ad=0.1449 pd=1.11 as=0.0693 ps=0.75 w=0.42 l=0.15
X4 a_76_199# A0 a_218_374# sky130_fd_pr__pfet_01v8_hvt ad=0.1932 pd=1.34 as=0.07665 ps=0.785 w=0.42 l=0.15
X5 a_505_21# S VGND sky130_fd_pr__nfet_01v8 ad=0.1092 pd=1.36 as=0.1449 ps=1.11 w=0.42 l=0.15
X6 a_439_47# A0 a_76_199# sky130_fd_pr__nfet_01v8 ad=0.0693 pd=0.75 as=0.09975 ps=0.895 w=0.42 l=0.15
X7 a_535_374# A1 a_76_199# sky130_fd_pr__pfet_01v8_hvt ad=0.0441 pd=0.63 as=0.1932 ps=1.34 w=0.42 l=0.15
X8 a_76_199# A1 a_218_47# sky130_fd_pr__nfet_01v8 ad=0.09975 pd=0.895 as=0.0693 ps=0.75 w=0.42 l=0.15
X9 a_218_47# S VGND sky130_fd_pr__nfet_01v8 ad=0.0693 pd=0.75 as=0.11285 ps=1.045 w=0.42 l=0.15
X10 VPWR a_76_199# X sky130_fd_pr__pfet_01v8_hvt ad=0.15835 pd=1.395 as=0.26 ps=2.52 w=1 l=0.15
X11 VGND a_76_199# X sky130_fd_pr__nfet_01v8 ad=0.11285 pd=1.045 as=0.169 ps=1.82 w=0.65 l=0.15
.ends

.subckt sky130_fd_sc_hd__mux4_1 VGND VPWR A1 A0 S0 A3 A2 S1 X
X0 a_277_47# a_247_21# a_27_413# sky130_fd_pr__pfet_01v8_hvt ad=0.0567 pd=0.69 as=0.1092 ps=1.36 w=0.42 l=0.15
X1 VGND S0 a_247_21# sky130_fd_pr__nfet_01v8 ad=0.1092 pd=1.36 as=0.1092 ps=1.36 w=0.42 l=0.15
X2 a_834_97# a_247_21# a_750_97# sky130_fd_pr__nfet_01v8 ad=0.10795 pd=1.36 as=0.0567 ps=0.69 w=0.42 l=0.15
X3 VGND A3 a_668_97# sky130_fd_pr__nfet_01v8 ad=0.0567 pd=0.69 as=0.1079 ps=1.36 w=0.42 l=0.15
X4 a_1290_413# S1 VPWR sky130_fd_pr__pfet_01v8_hvt ad=0.1092 pd=1.36 as=0.1092 ps=1.36 w=0.42 l=0.15
X5 a_834_97# A2 VGND sky130_fd_pr__nfet_01v8 ad=0.1092 pd=1.36 as=0.0567 ps=0.69 w=0.42 l=0.15
X6 a_750_97# S0 a_757_363# sky130_fd_pr__pfet_01v8_hvt ad=0.0567 pd=0.69 as=0.1079 ps=1.36 w=0.42 l=0.15
X7 a_27_47# S0 a_277_47# sky130_fd_pr__nfet_01v8 ad=0.1092 pd=1.36 as=0.085225 ps=0.925 w=0.42 l=0.15
X8 X a_1478_413# VGND sky130_fd_pr__nfet_01v8 ad=0.169 pd=1.82 as=0.169 ps=1.82 w=0.65 l=0.15
X9 VPWR A1 a_27_413# sky130_fd_pr__pfet_01v8_hvt ad=0.0567 pd=0.69 as=0.1092 ps=1.36 w=0.42 l=0.15
X10 VPWR S0 a_247_21# sky130_fd_pr__pfet_01v8_hvt ad=0.1079 pd=1.36 as=0.1083 ps=1.36 w=0.42 l=0.15
X11 X a_1478_413# VPWR sky130_fd_pr__pfet_01v8_hvt ad=0.26 pd=2.52 as=0.26 ps=2.52 w=1 l=0.15
X12 a_193_47# A0 VGND sky130_fd_pr__nfet_01v8 ad=0.0567 pd=0.69 as=0.0567 ps=0.69 w=0.42 l=0.15
X13 a_750_97# a_1290_413# a_1478_413# sky130_fd_pr__pfet_01v8_hvt ad=0.2688 pd=2.12 as=0.092075 ps=0.99 w=0.42 l=0.15
X14 a_1478_413# S1 a_277_47# sky130_fd_pr__pfet_01v8_hvt ad=0.092075 pd=0.99 as=0.1092 ps=1.36 w=0.42 l=0.15
X15 a_1290_413# S1 VGND sky130_fd_pr__nfet_01v8 ad=0.1092 pd=1.36 as=0.1092 ps=1.36 w=0.42 l=0.15
X16 a_277_47# a_247_21# a_193_47# sky130_fd_pr__nfet_01v8 ad=0.085225 pd=0.925 as=0.0567 ps=0.69 w=0.42 l=0.15
X17 a_750_97# S0 a_668_97# sky130_fd_pr__nfet_01v8 ad=0.0567 pd=0.69 as=0.1092 ps=1.36 w=0.42 l=0.15
X18 a_923_363# a_247_21# a_750_97# sky130_fd_pr__pfet_01v8_hvt ad=0.090125 pd=0.995 as=0.0567 ps=0.69 w=0.42 l=0.15
X19 a_757_363# A2 VPWR sky130_fd_pr__pfet_01v8_hvt ad=0.1092 pd=1.36 as=0.0567 ps=0.69 w=0.42 l=0.15
X20 VPWR A3 a_923_363# sky130_fd_pr__pfet_01v8_hvt ad=0.0567 pd=0.69 as=0.090125 ps=0.995 w=0.42 l=0.15
X21 a_277_47# a_1290_413# a_1478_413# sky130_fd_pr__nfet_01v8 ad=0.1092 pd=1.36 as=0.151025 ps=1.285 w=0.42 l=0.15
X22 a_193_413# A0 VPWR sky130_fd_pr__pfet_01v8_hvt ad=0.1092 pd=1.36 as=0.0567 ps=0.69 w=0.42 l=0.15
X23 a_193_413# S0 a_277_47# sky130_fd_pr__pfet_01v8_hvt ad=0.1079 pd=1.36 as=0.0567 ps=0.69 w=0.42 l=0.15
X24 VGND A1 a_27_47# sky130_fd_pr__nfet_01v8 ad=0.0567 pd=0.69 as=0.1092 ps=1.36 w=0.42 l=0.15
X25 a_1478_413# S1 a_750_97# sky130_fd_pr__nfet_01v8 ad=0.151025 pd=1.285 as=0.1092 ps=1.36 w=0.42 l=0.15
.ends

.subckt sky130_fd_sc_hd__a41o_1 VGND VPWR A3 A4 A2 X B1 A1
X0 a_465_47# A2 a_381_47# sky130_fd_pr__nfet_01v8 ad=0.10725 pd=0.98 as=0.08775 ps=0.92 w=0.65 l=0.15
X1 VGND A4 a_561_47# sky130_fd_pr__nfet_01v8 ad=0.169 pd=1.82 as=0.10725 ps=0.98 w=0.65 l=0.15
X2 VPWR A3 a_297_297# sky130_fd_pr__pfet_01v8_hvt ad=0.165 pd=1.33 as=0.165 ps=1.33 w=1 l=0.15
X3 a_297_297# A2 VPWR sky130_fd_pr__pfet_01v8_hvt ad=0.165 pd=1.33 as=0.135 ps=1.27 w=1 l=0.15
X4 a_297_297# A4 VPWR sky130_fd_pr__pfet_01v8_hvt ad=0.26 pd=2.52 as=0.165 ps=1.33 w=1 l=0.15
X5 VPWR A1 a_297_297# sky130_fd_pr__pfet_01v8_hvt ad=0.135 pd=1.27 as=0.135 ps=1.27 w=1 l=0.15
X6 a_381_47# A1 a_79_21# sky130_fd_pr__nfet_01v8 ad=0.08775 pd=0.92 as=0.183625 ps=1.215 w=0.65 l=0.15
X7 a_297_297# B1 a_79_21# sky130_fd_pr__pfet_01v8_hvt ad=0.135 pd=1.27 as=0.26 ps=2.52 w=1 l=0.15
X8 VPWR a_79_21# X sky130_fd_pr__pfet_01v8_hvt ad=0.26 pd=2.52 as=0.26 ps=2.52 w=1 l=0.15
X9 a_79_21# B1 VGND sky130_fd_pr__nfet_01v8 ad=0.183625 pd=1.215 as=0.160875 ps=1.145 w=0.65 l=0.15
X10 VGND a_79_21# X sky130_fd_pr__nfet_01v8 ad=0.160875 pd=1.145 as=0.169 ps=1.82 w=0.65 l=0.15
X11 a_561_47# A3 a_465_47# sky130_fd_pr__nfet_01v8 ad=0.10725 pd=0.98 as=0.10725 ps=0.98 w=0.65 l=0.15
.ends

.subckt sky130_fd_sc_hd__or3b_1 VGND VPWR B C_N A X
X0 a_109_93# C_N VGND sky130_fd_pr__nfet_01v8 ad=0.1092 pd=1.36 as=0.1092 ps=1.36 w=0.42 l=0.15
X1 a_215_53# B VGND sky130_fd_pr__nfet_01v8 ad=0.0567 pd=0.69 as=0.0567 ps=0.69 w=0.42 l=0.15
X2 VGND a_109_93# a_215_53# sky130_fd_pr__nfet_01v8 ad=0.0567 pd=0.69 as=0.1092 ps=1.36 w=0.42 l=0.15
X3 VGND A a_215_53# sky130_fd_pr__nfet_01v8 ad=0.10025 pd=0.985 as=0.0567 ps=0.69 w=0.42 l=0.15
X4 VPWR A a_369_297# sky130_fd_pr__pfet_01v8_hvt ad=0.14825 pd=1.34 as=0.06825 ps=0.745 w=0.42 l=0.15
X5 a_369_297# B a_297_297# sky130_fd_pr__pfet_01v8_hvt ad=0.06825 pd=0.745 as=0.0441 ps=0.63 w=0.42 l=0.15
X6 X a_215_53# VPWR sky130_fd_pr__pfet_01v8_hvt ad=0.275 pd=2.55 as=0.14825 ps=1.34 w=1 l=0.15
X7 a_297_297# a_109_93# a_215_53# sky130_fd_pr__pfet_01v8_hvt ad=0.0441 pd=0.63 as=0.1092 ps=1.36 w=0.42 l=0.15
X8 a_109_93# C_N VPWR sky130_fd_pr__pfet_01v8_hvt ad=0.1092 pd=1.36 as=0.1092 ps=1.36 w=0.42 l=0.15
X9 X a_215_53# VGND sky130_fd_pr__nfet_01v8 ad=0.17875 pd=1.85 as=0.10025 ps=0.985 w=0.65 l=0.15
.ends

* Black-box entry subcircuit for sky130_fd_sc_hd__tapvpwrvgnd_1 abstract view
.subckt sky130_fd_sc_hd__tapvpwrvgnd_1  
.ends

.subckt sky130_fd_sc_hd__clkbuf_1 VGND VPWR X A
X0 VPWR a_75_212# X sky130_fd_pr__pfet_01v8_hvt ad=0.11455 pd=1.08 as=0.2054 ps=2.1 w=0.79 l=0.15
X1 a_75_212# A VGND sky130_fd_pr__nfet_01v8 ad=0.1352 pd=1.56 as=0.0754 ps=0.81 w=0.52 l=0.15
X2 a_75_212# A VPWR sky130_fd_pr__pfet_01v8_hvt ad=0.2054 pd=2.1 as=0.11455 ps=1.08 w=0.79 l=0.15
X3 VGND a_75_212# X sky130_fd_pr__nfet_01v8 ad=0.0754 pd=0.81 as=0.1352 ps=1.56 w=0.52 l=0.15
.ends

.subckt sky130_fd_sc_hd__buf_1 VGND VPWR X A
X0 VPWR A a_27_47# sky130_fd_pr__pfet_01v8_hvt ad=0.11455 pd=1.08 as=0.2054 ps=2.1 w=0.79 l=0.15
X1 X a_27_47# VGND sky130_fd_pr__nfet_01v8 ad=0.1352 pd=1.56 as=0.0754 ps=0.81 w=0.52 l=0.15
X2 X a_27_47# VPWR sky130_fd_pr__pfet_01v8_hvt ad=0.2054 pd=2.1 as=0.11455 ps=1.08 w=0.79 l=0.15
X3 VGND A a_27_47# sky130_fd_pr__nfet_01v8 ad=0.0754 pd=0.81 as=0.1352 ps=1.56 w=0.52 l=0.15
.ends

.subckt sky130_fd_sc_hd__nand3b_1 VGND VPWR Y B C A_N
X0 Y a_53_93# VPWR sky130_fd_pr__pfet_01v8_hvt ad=0.28 pd=2.56 as=0.1925 ps=1.385 w=1 l=0.15
X1 a_232_47# C VGND sky130_fd_pr__nfet_01v8 ad=0.08775 pd=0.92 as=0.10025 ps=0.985 w=0.65 l=0.15
X2 VPWR B Y sky130_fd_pr__pfet_01v8_hvt ad=0.1925 pd=1.385 as=0.135 ps=1.27 w=1 l=0.15
X3 VPWR A_N a_53_93# sky130_fd_pr__pfet_01v8_hvt ad=0.14575 pd=1.335 as=0.1092 ps=1.36 w=0.42 l=0.15
X4 VGND A_N a_53_93# sky130_fd_pr__nfet_01v8 ad=0.10025 pd=0.985 as=0.1092 ps=1.36 w=0.42 l=0.15
X5 a_316_47# B a_232_47# sky130_fd_pr__nfet_01v8 ad=0.125125 pd=1.035 as=0.08775 ps=0.92 w=0.65 l=0.15
X6 Y a_53_93# a_316_47# sky130_fd_pr__nfet_01v8 ad=0.182 pd=1.86 as=0.125125 ps=1.035 w=0.65 l=0.15
X7 Y C VPWR sky130_fd_pr__pfet_01v8_hvt ad=0.135 pd=1.27 as=0.14575 ps=1.335 w=1 l=0.15
.ends

.subckt sky130_fd_sc_hd__nand2_1 VGND VPWR A Y B
X0 VPWR A Y sky130_fd_pr__pfet_01v8_hvt ad=0.26 pd=2.52 as=0.135 ps=1.27 w=1 l=0.15
X1 Y A a_113_47# sky130_fd_pr__nfet_01v8 ad=0.169 pd=1.82 as=0.08775 ps=0.92 w=0.65 l=0.15
X2 a_113_47# B VGND sky130_fd_pr__nfet_01v8 ad=0.08775 pd=0.92 as=0.169 ps=1.82 w=0.65 l=0.15
X3 Y B VPWR sky130_fd_pr__pfet_01v8_hvt ad=0.135 pd=1.27 as=0.26 ps=2.52 w=1 l=0.15
.ends

.subckt sky130_fd_sc_hd__clkbuf_2 VGND VPWR A X
X0 VPWR A a_27_47# sky130_fd_pr__pfet_01v8_hvt ad=0.1625 pd=1.325 as=0.265 ps=2.53 w=1 l=0.15
X1 VPWR a_27_47# X sky130_fd_pr__pfet_01v8_hvt ad=0.26 pd=2.52 as=0.135 ps=1.27 w=1 l=0.15 M=2
X2 VGND A a_27_47# sky130_fd_pr__nfet_01v8 ad=0.06825 pd=0.745 as=0.1113 ps=1.37 w=0.42 l=0.15
X3 X a_27_47# VGND sky130_fd_pr__nfet_01v8 ad=0.0567 pd=0.69 as=0.06825 ps=0.745 w=0.42 l=0.15 M=2
.ends

.subckt sky130_fd_sc_hd__a2111oi_1 VPWR VGND D1 C1 B1 A1 Y A2
X0 a_316_297# C1 a_217_297# sky130_fd_pr__pfet_01v8_hvt ad=0.185 pd=1.37 as=0.1725 ps=1.345 w=1 l=0.15
X1 Y D1 VGND sky130_fd_pr__nfet_01v8 ad=0.125125 pd=1.035 as=0.481 ps=2.78 w=0.65 l=0.15
X2 VGND C1 Y sky130_fd_pr__nfet_01v8 ad=0.12025 pd=1.02 as=0.125125 ps=1.035 w=0.65 l=0.15
X3 a_420_297# B1 a_316_297# sky130_fd_pr__pfet_01v8_hvt ad=0.29 pd=1.58 as=0.185 ps=1.37 w=1 l=0.15
X4 VPWR A1 a_420_297# sky130_fd_pr__pfet_01v8_hvt ad=0.1375 pd=1.275 as=0.29 ps=1.58 w=1 l=0.15
X5 VGND A2 a_568_47# sky130_fd_pr__nfet_01v8 ad=0.19175 pd=1.89 as=0.0845 ps=0.91 w=0.65 l=0.15
X6 Y B1 VGND sky130_fd_pr__nfet_01v8 ad=0.19175 pd=1.24 as=0.12025 ps=1.02 w=0.65 l=0.15
X7 a_420_297# A2 VPWR sky130_fd_pr__pfet_01v8_hvt ad=0.29 pd=2.58 as=0.1375 ps=1.275 w=1 l=0.15
X8 a_217_297# D1 Y sky130_fd_pr__pfet_01v8_hvt ad=0.1725 pd=1.345 as=0.755 ps=3.51 w=1 l=0.15
X9 a_568_47# A1 Y sky130_fd_pr__nfet_01v8 ad=0.0845 pd=0.91 as=0.19175 ps=1.24 w=0.65 l=0.15
.ends

.subckt sky130_fd_sc_hd__nor3b_1 VGND VPWR C_N B Y A
X0 VGND a_91_199# Y sky130_fd_pr__nfet_01v8 ad=0.08775 pd=0.92 as=0.221 ps=1.98 w=0.65 l=0.15
X1 Y B VGND sky130_fd_pr__nfet_01v8 ad=0.08775 pd=0.92 as=0.08775 ps=0.92 w=0.65 l=0.15
X2 VPWR A a_245_297# sky130_fd_pr__pfet_01v8_hvt ad=0.14575 pd=1.335 as=0.135 ps=1.27 w=1 l=0.15
X3 a_91_199# C_N VGND sky130_fd_pr__nfet_01v8 ad=0.1092 pd=1.36 as=0.10025 ps=0.985 w=0.42 l=0.15
X4 VGND A Y sky130_fd_pr__nfet_01v8 ad=0.10025 pd=0.985 as=0.08775 ps=0.92 w=0.65 l=0.15
X5 a_245_297# B a_161_297# sky130_fd_pr__pfet_01v8_hvt ad=0.135 pd=1.27 as=0.135 ps=1.27 w=1 l=0.15
X6 a_91_199# C_N VPWR sky130_fd_pr__pfet_01v8_hvt ad=0.1092 pd=1.36 as=0.14575 ps=1.335 w=0.42 l=0.15
X7 a_161_297# a_91_199# Y sky130_fd_pr__pfet_01v8_hvt ad=0.135 pd=1.27 as=0.32 ps=2.64 w=1 l=0.15
.ends

.subckt sky130_fd_sc_hd__buf_2 VPWR VGND X A
X0 VPWR a_27_47# X sky130_fd_pr__pfet_01v8_hvt ad=0.265 pd=2.53 as=0.135 ps=1.27 w=1 l=0.15 M=2
X1 VPWR A a_27_47# sky130_fd_pr__pfet_01v8_hvt ad=0.149 pd=1.325 as=0.1664 ps=1.8 w=0.64 l=0.15
X2 X a_27_47# VGND sky130_fd_pr__nfet_01v8 ad=0.08775 pd=0.92 as=0.097 ps=0.975 w=0.65 l=0.15 M=2
X3 VGND A a_27_47# sky130_fd_pr__nfet_01v8 ad=0.097 pd=0.975 as=0.1092 ps=1.36 w=0.42 l=0.15
.ends

.subckt sky130_fd_sc_hd__and3b_1 A_N B X C VGND VPWR
X0 a_109_93# A_N VGND sky130_fd_pr__nfet_01v8 ad=0.10785 pd=1.36 as=0.1092 ps=1.36 w=0.42 l=0.15
X1 X a_209_311# VPWR sky130_fd_pr__pfet_01v8_hvt ad=0.26 pd=2.52 as=0.142225 ps=1.335 w=1 l=0.15
X2 a_109_93# A_N VPWR sky130_fd_pr__pfet_01v8_hvt ad=0.1087 pd=1.36 as=0.1092 ps=1.36 w=0.42 l=0.15
X3 a_296_53# a_109_93# a_209_311# sky130_fd_pr__nfet_01v8 ad=0.0441 pd=0.63 as=0.107825 ps=1.36 w=0.42 l=0.15
X4 VPWR C a_209_311# sky130_fd_pr__pfet_01v8_hvt ad=0.142225 pd=1.335 as=0.074375 ps=0.815 w=0.42 l=0.15
X5 a_368_53# B a_296_53# sky130_fd_pr__nfet_01v8 ad=0.05355 pd=0.675 as=0.0441 ps=0.63 w=0.42 l=0.15
X6 X a_209_311# VGND sky130_fd_pr__nfet_01v8 ad=0.169 pd=1.82 as=0.122275 ps=1.08 w=0.65 l=0.15
X7 a_209_311# B VPWR sky130_fd_pr__pfet_01v8_hvt ad=0.074375 pd=0.815 as=0.0567 ps=0.69 w=0.42 l=0.15
X8 VPWR a_109_93# a_209_311# sky130_fd_pr__pfet_01v8_hvt ad=0.0567 pd=0.69 as=0.1085 ps=1.36 w=0.42 l=0.15
X9 VGND C a_368_53# sky130_fd_pr__nfet_01v8 ad=0.122275 pd=1.08 as=0.05355 ps=0.675 w=0.42 l=0.15
.ends

.subckt mux16x1_project data_in[0] data_in[10] data_in[11] data_in[12] data_in[13]
+ data_in[14] data_in[15] data_in[1] data_in[2] data_in[3] data_in[4] data_in[5] data_in[6]
+ data_in[7] data_in[8] data_in[9] select[0] select[1] select[2] select[3] y vssd1
+ vccd1
XFILLER_0_3_39 vssd1 vccd1 sky130_ef_sc_hd__decap_12
XFILLER_0_18_29 vssd1 vccd1 sky130_ef_sc_hd__decap_12
XFILLER_0_0_29 vssd1 vccd1 sky130_ef_sc_hd__decap_12
XFILLER_0_10_41 vssd1 vccd1 sky130_ef_sc_hd__decap_12
XFILLER_0_29_39 vssd1 vccd1 sky130_ef_sc_hd__decap_12
XFILLER_0_21_51 vssd1 vccd1 sky130_fd_sc_hd__decap_4
XFILLER_0_26_29 vssd1 vccd1 sky130_ef_sc_hd__decap_12
XFILLER_0_10_53 vssd1 vccd1 sky130_ef_sc_hd__decap_12
XFILLER_0_19_51 vssd1 vccd1 sky130_fd_sc_hd__decap_4
XFILLER_0_1_51 vssd1 vccd1 sky130_fd_sc_hd__decap_4
XFILLER_0_6_29 vssd1 vccd1 sky130_ef_sc_hd__decap_12
XFILLER_0_13_9 vssd1 vccd1 sky130_ef_sc_hd__decap_12
XFILLER_0_16_41 vssd1 vccd1 sky130_ef_sc_hd__decap_12
Xoutput21 vssd1 vccd1 _26_/Y y sky130_fd_sc_hd__buf_12
XFILLER_0_13_53 vccd1 vssd1 sky130_fd_sc_hd__decap_3
XFILLER_0_9_18 vssd1 vccd1 sky130_ef_sc_hd__decap_12
XFILLER_0_10_10 vssd1 vccd1 sky130_ef_sc_hd__decap_12
XFILLER_0_10_65 vssd1 vccd1 sky130_ef_sc_hd__decap_12
XFILLER_0_24_41 vssd1 vccd1 sky130_ef_sc_hd__decap_12
XFILLER_0_16_53 vssd1 vccd1 sky130_ef_sc_hd__decap_12
XFILLER_0_27_30 vssd1 vccd1 sky130_ef_sc_hd__decap_12
XFILLER_0_4_41 vssd1 vccd1 sky130_ef_sc_hd__decap_12
XFILLER_0_13_21 vssd1 vccd1 sky130_ef_sc_hd__decap_12
XFILLER_0_24_53 vssd1 vccd1 sky130_ef_sc_hd__decap_12
XFILLER_0_10_22 vccd1 vssd1 sky130_fd_sc_hd__decap_6
XFILLER_0_10_77 vssd1 vccd1 sky130_fd_sc_hd__decap_4
XFILLER_0_7_30 vssd1 vccd1 sky130_ef_sc_hd__decap_12
XFILLER_0_13_33 vssd1 vccd1 sky130_ef_sc_hd__decap_12
XFILLER_0_27_42 vssd1 vccd1 sky130_ef_sc_hd__decap_12
XFILLER_0_4_53 vssd1 vccd1 sky130_ef_sc_hd__decap_12
XFILLER_0_24_65 vssd1 vccd1 sky130_ef_sc_hd__decap_12
XFILLER_0_27_6 vssd1 vccd1 sky130_ef_sc_hd__decap_12
XFILLER_0_7_42 vssd1 vccd1 sky130_ef_sc_hd__decap_12
XFILLER_0_0_9 vssd1 vccd1 sky130_ef_sc_hd__decap_12
XFILLER_0_13_45 vccd1 vssd1 sky130_fd_sc_hd__decap_8
XFILLER_0_24_77 vssd1 vccd1 sky130_fd_sc_hd__decap_4
XFILLER_0_4_65 vssd1 vccd1 sky130_ef_sc_hd__decap_12
XFILLER_0_18_3 vccd1 vssd1 sky130_fd_sc_hd__decap_8
XPHY_0 vccd1 vssd1 sky130_fd_sc_hd__decap_3
XFILLER_0_9_6 vssd1 vccd1 sky130_ef_sc_hd__decap_12
XFILLER_0_13_57 vssd1 vccd1 sky130_ef_sc_hd__decap_12
XFILLER_0_4_77 vssd1 vccd1 sky130_fd_sc_hd__decap_4
X_26_ vssd1 vccd1 _21_/X _25_/A _26_/Y _25_/Y sky130_fd_sc_hd__a21oi_2
XFILLER_0_21_57 vssd1 vccd1 sky130_ef_sc_hd__decap_12
XPHY_1 vccd1 vssd1 sky130_fd_sc_hd__decap_3
XFILLER_0_13_69 vssd1 vccd1 sky130_ef_sc_hd__decap_12
XFILLER_0_19_57 vssd1 vccd1 sky130_ef_sc_hd__decap_12
XFILLER_0_1_57 vssd1 vccd1 sky130_ef_sc_hd__decap_12
X_25_ vssd1 vccd1 _25_/A _25_/B _25_/Y sky130_fd_sc_hd__nor2_1
XFILLER_0_21_69 vssd1 vccd1 sky130_ef_sc_hd__decap_12
XPHY_2 vccd1 vssd1 sky130_fd_sc_hd__decap_3
XFILLER_0_27_57 vssd1 vccd1 sky130_ef_sc_hd__decap_12
XFILLER_0_1_69 vssd1 vccd1 sky130_ef_sc_hd__decap_12
XFILLER_0_19_69 vssd1 vccd1 sky130_ef_sc_hd__decap_12
XFILLER_0_21_15 vssd1 vccd1 sky130_ef_sc_hd__decap_12
X_24_ vssd1 vccd1 _25_/B _22_/X _24_/S _23_/X sky130_fd_sc_hd__mux2_1
XFILLER_0_16_15 vssd1 vccd1 sky130_ef_sc_hd__decap_12
XFILLER_0_27_69 vssd1 vccd1 sky130_ef_sc_hd__decap_12
XPHY_3 vccd1 vssd1 sky130_fd_sc_hd__decap_3
XFILLER_0_7_57 vssd1 vccd1 sky130_ef_sc_hd__decap_12
XFILLER_0_16_3 vssd1 vccd1 sky130_ef_sc_hd__decap_12
XFILLER_0_19_15 vssd1 vccd1 sky130_ef_sc_hd__decap_12
XFILLER_0_1_15 vssd1 vccd1 sky130_ef_sc_hd__decap_12
XFILLER_0_21_27 vssd1 vccd1 sky130_ef_sc_hd__decap_12
X_23_ vssd1 vccd1 _23_/A1 _23_/A0 _20_/B _23_/A3 _23_/A2 _23_/S1 _23_/X sky130_fd_sc_hd__mux4_1
XPHY_4 vccd1 vssd1 sky130_fd_sc_hd__decap_3
XFILLER_0_7_69 vssd1 vccd1 sky130_ef_sc_hd__decap_12
XFILLER_0_30_6 vssd1 vccd1 sky130_ef_sc_hd__decap_12
XFILLER_0_1_27 vssd1 vccd1 sky130_ef_sc_hd__decap_12
XFILLER_0_10_29 vssd1 vccd1 sky130_ef_sc_hd__decap_12
XFILLER_0_19_27 vssd1 vccd1 sky130_ef_sc_hd__decap_12
XFILLER_0_21_39 vssd1 vccd1 sky130_ef_sc_hd__decap_12
X_22_ vssd1 vccd1 _22_/A1 _22_/A0 _20_/B _22_/A3 _22_/A2 _23_/S1 _22_/X sky130_fd_sc_hd__mux4_1
XPHY_5 vccd1 vssd1 sky130_fd_sc_hd__decap_3
XFILLER_0_21_3 vssd1 vccd1 sky130_ef_sc_hd__decap_12
XFILLER_0_19_39 vssd1 vccd1 sky130_ef_sc_hd__decap_12
XFILLER_0_1_39 vssd1 vccd1 sky130_ef_sc_hd__decap_12
X_21_ vssd1 vccd1 _19_/Y _20_/X _18_/Y _21_/X _16_/Y _23_/S1 sky130_fd_sc_hd__a41o_1
XFILLER_0_16_29 vssd1 vccd1 sky130_ef_sc_hd__decap_12
XPHY_6 vccd1 vssd1 sky130_fd_sc_hd__decap_3
XFILLER_0_14_3 vssd1 vccd1 sky130_ef_sc_hd__decap_12
XFILLER_0_24_18 vccd1 vssd1 sky130_fd_sc_hd__decap_8
XFILLER_0_24_29 vssd1 vccd1 sky130_ef_sc_hd__decap_12
XFILLER_0_3_3 vssd1 vccd1 sky130_ef_sc_hd__decap_12
X_20_ vssd1 vccd1 _20_/B input4/X _24_/S _20_/X sky130_fd_sc_hd__or3b_1
Xinput1 vssd1 vccd1 _23_/A0 data_in[0] sky130_fd_sc_hd__clkbuf_1
XPHY_7 vccd1 vssd1 sky130_fd_sc_hd__decap_3
XFILLER_0_27_18 vssd1 vccd1 sky130_ef_sc_hd__decap_12
XFILLER_0_4_18 vccd1 vssd1 sky130_fd_sc_hd__decap_8
XFILLER_0_4_29 vssd1 vccd1 sky130_ef_sc_hd__decap_12
XFILLER_0_14_41 vssd1 vccd1 sky130_ef_sc_hd__decap_12
Xinput2 vssd1 vccd1 _14_/C data_in[10] sky130_fd_sc_hd__clkbuf_1
XFILLER_0_11_20 vssd1 vccd1 sky130_ef_sc_hd__decap_12
XPHY_8 vccd1 vssd1 sky130_fd_sc_hd__decap_3
XFILLER_0_7_18 vssd1 vccd1 sky130_ef_sc_hd__decap_12
XFILLER_0_22_41 vssd1 vccd1 sky130_ef_sc_hd__decap_12
XFILLER_0_14_53 vssd1 vccd1 sky130_ef_sc_hd__decap_12
XFILLER_0_30_41 vssd1 vccd1 sky130_ef_sc_hd__decap_12
Xinput3 vssd1 vccd1 _13_/A1 data_in[11] sky130_fd_sc_hd__clkbuf_1
XFILLER_0_11_32 vssd1 vccd1 sky130_ef_sc_hd__decap_12
XFILLER_0_22_53 vssd1 vccd1 sky130_ef_sc_hd__decap_12
XFILLER_0_2_41 vssd1 vccd1 sky130_ef_sc_hd__decap_12
XPHY_9 vccd1 vssd1 sky130_fd_sc_hd__decap_3
XFILLER_0_17_53 vccd1 vssd1 sky130_fd_sc_hd__decap_3
XFILLER_0_14_65 vssd1 vccd1 sky130_ef_sc_hd__decap_12
XFILLER_0_28_41 vssd1 vccd1 sky130_ef_sc_hd__decap_12
XFILLER_0_30_53 vssd1 vccd1 sky130_ef_sc_hd__decap_12
XFILLER_0_1_3 vssd1 vccd1 sky130_ef_sc_hd__decap_12
Xinput4 vssd1 vccd1 input4/X data_in[12] sky130_fd_sc_hd__clkbuf_1
XFILLER_0_11_44 vssd1 vccd1 sky130_ef_sc_hd__decap_12
XFILLER_0_2_53 vssd1 vccd1 sky130_ef_sc_hd__decap_12
XFILLER_0_22_65 vssd1 vccd1 sky130_ef_sc_hd__decap_12
XFILLER_0_8_41 vssd1 vccd1 sky130_ef_sc_hd__decap_12
XFILLER_0_17_21 vssd1 vccd1 sky130_ef_sc_hd__decap_12
XFILLER_0_28_53 vssd1 vccd1 sky130_ef_sc_hd__decap_12
XFILLER_0_14_77 vssd1 vccd1 sky130_fd_sc_hd__decap_4
XFILLER_0_30_65 vssd1 vccd1 sky130_ef_sc_hd__decap_12
Xinput5 vssd1 vccd1 _17_/A0 data_in[13] sky130_fd_sc_hd__clkbuf_1
XFILLER_0_22_22 vccd1 vssd1 sky130_fd_sc_hd__decap_6
XFILLER_0_2_65 vssd1 vccd1 sky130_ef_sc_hd__decap_12
XFILLER_0_17_33 vssd1 vccd1 sky130_ef_sc_hd__decap_12
XFILLER_0_22_77 vssd1 vccd1 sky130_fd_sc_hd__decap_4
XFILLER_0_8_53 vssd1 vccd1 sky130_ef_sc_hd__decap_12
XFILLER_0_28_65 vssd1 vccd1 sky130_ef_sc_hd__decap_12
XFILLER_0_30_77 vssd1 vccd1 sky130_fd_sc_hd__decap_4
XFILLER_0_11_57 vssd1 vccd1 sky130_ef_sc_hd__decap_12
Xinput6 vssd1 vccd1 _19_/C data_in[14] sky130_fd_sc_hd__clkbuf_1
XFILLER_0_2_77 vssd1 vccd1 sky130_fd_sc_hd__decap_4
XFILLER_0_8_65 vssd1 vccd1 sky130_ef_sc_hd__decap_12
XFILLER_0_17_45 vccd1 vssd1 sky130_fd_sc_hd__decap_8
XFILLER_0_28_3 vssd1 vccd1 sky130_ef_sc_hd__decap_12
Xinput20 vssd1 vccd1 _25_/A select[3] sky130_fd_sc_hd__buf_1
XFILLER_0_28_77 vssd1 vccd1 sky130_fd_sc_hd__decap_4
XFILLER_0_12_6 vssd1 vccd1 sky130_ef_sc_hd__decap_12
Xinput7 vssd1 vccd1 _17_/A1 data_in[15] sky130_fd_sc_hd__clkbuf_1
XFILLER_0_11_69 vssd1 vccd1 sky130_ef_sc_hd__decap_12
XFILLER_0_17_57 vssd1 vccd1 sky130_ef_sc_hd__decap_12
Xinput10 vssd1 vccd1 _22_/A1 data_in[3] sky130_fd_sc_hd__clkbuf_1
XFILLER_0_8_77 vssd1 vccd1 sky130_fd_sc_hd__decap_4
XFILLER_0_5_12 vssd1 vccd1 sky130_ef_sc_hd__decap_12
XFILLER_0_25_24 vssd1 vccd1 sky130_ef_sc_hd__decap_12
XFILLER_0_25_57 vssd1 vccd1 sky130_ef_sc_hd__decap_12
Xinput8 vssd1 vccd1 _22_/A0 data_in[1] sky130_fd_sc_hd__clkbuf_1
XFILLER_0_17_69 vssd1 vccd1 sky130_ef_sc_hd__decap_12
Xinput11 vssd1 vccd1 _23_/A2 data_in[4] sky130_fd_sc_hd__clkbuf_1
XFILLER_0_14_15 vssd1 vccd1 sky130_ef_sc_hd__decap_12
XFILLER_0_5_24 vssd1 vccd1 sky130_ef_sc_hd__decap_12
XFILLER_0_5_57 vssd1 vccd1 sky130_ef_sc_hd__decap_12
XFILLER_0_25_36 vssd1 vccd1 sky130_ef_sc_hd__decap_12
XFILLER_0_25_69 vssd1 vccd1 sky130_ef_sc_hd__decap_12
Xinput9 vssd1 vccd1 _23_/A1 data_in[2] sky130_fd_sc_hd__clkbuf_1
Xinput12 vssd1 vccd1 _22_/A2 data_in[5] sky130_fd_sc_hd__clkbuf_1
XPHY_60 vccd1 vssd1 sky130_fd_sc_hd__decap_3
XFILLER_0_26_3 vssd1 vccd1 sky130_ef_sc_hd__decap_12
XFILLER_0_5_36 vssd1 vccd1 sky130_ef_sc_hd__decap_12
XFILLER_0_5_69 vssd1 vccd1 sky130_ef_sc_hd__decap_12
XFILLER_0_25_48 vccd1 vssd1 sky130_fd_sc_hd__decap_8
XPHY_50 vccd1 vssd1 sky130_fd_sc_hd__decap_3
XPHY_61 vccd1 vssd1 sky130_fd_sc_hd__decap_3
Xinput13 vssd1 vccd1 _23_/A3 data_in[6] sky130_fd_sc_hd__clkbuf_1
XFILLER_0_28_15 vssd1 vccd1 sky130_ef_sc_hd__decap_12
XFILLER_0_8_14 vssd1 vccd1 sky130_ef_sc_hd__decap_12
XFILLER_0_19_3 vssd1 vccd1 sky130_ef_sc_hd__decap_12
XFILLER_0_5_48 vccd1 vssd1 sky130_fd_sc_hd__decap_8
XFILLER_0_8_3 vccd1 vssd1 sky130_fd_sc_hd__decap_3
Xinput14 vssd1 vccd1 _22_/A3 data_in[7] sky130_fd_sc_hd__clkbuf_1
XPHY_40 vccd1 vssd1 sky130_fd_sc_hd__decap_3
XPHY_51 vccd1 vssd1 sky130_fd_sc_hd__decap_3
XPHY_62 vccd1 vssd1 sky130_fd_sc_hd__decap_3
X_19_ vssd1 vccd1 _19_/Y _20_/B _19_/C _24_/S sky130_fd_sc_hd__nand3b_1
XFILLER_0_14_29 vssd1 vccd1 sky130_ef_sc_hd__decap_12
XPHY_30 vccd1 vssd1 sky130_fd_sc_hd__decap_3
XPHY_41 vccd1 vssd1 sky130_fd_sc_hd__decap_3
XFILLER_0_22_29 vssd1 vccd1 sky130_ef_sc_hd__decap_12
XPHY_52 vccd1 vssd1 sky130_fd_sc_hd__decap_3
XPHY_63 vccd1 vssd1 sky130_fd_sc_hd__decap_3
Xinput15 vssd1 vccd1 _15_/C_N data_in[8] sky130_fd_sc_hd__clkbuf_1
X_18_ vssd1 vccd1 _24_/S _18_/Y _18_/B sky130_fd_sc_hd__nand2_1
XFILLER_0_30_29 vssd1 vccd1 sky130_ef_sc_hd__decap_12
XFILLER_0_30_18 vccd1 vssd1 sky130_fd_sc_hd__decap_8
XFILLER_0_31_61 vssd1 vccd1 sky130_ef_sc_hd__decap_12
XFILLER_0_2_18 vccd1 vssd1 sky130_fd_sc_hd__decap_8
XFILLER_0_2_29 vssd1 vccd1 sky130_ef_sc_hd__decap_12
XPHY_20 vccd1 vssd1 sky130_fd_sc_hd__decap_3
XFILLER_0_12_41 vssd1 vccd1 sky130_ef_sc_hd__decap_12
XPHY_31 vccd1 vssd1 sky130_fd_sc_hd__decap_3
XPHY_42 vccd1 vssd1 sky130_fd_sc_hd__decap_3
XPHY_53 vccd1 vssd1 sky130_fd_sc_hd__decap_3
X_17_ vssd1 vccd1 _18_/B _17_/A1 _20_/B _17_/A0 sky130_fd_sc_hd__mux2_1
Xinput16 vssd1 vccd1 _13_/A0 data_in[9] sky130_fd_sc_hd__clkbuf_1
XFILLER_0_28_29 vssd1 vccd1 sky130_ef_sc_hd__decap_12
XFILLER_0_20_41 vssd1 vccd1 sky130_ef_sc_hd__decap_12
XPHY_10 vccd1 vssd1 sky130_fd_sc_hd__decap_3
XPHY_21 vccd1 vssd1 sky130_fd_sc_hd__decap_3
XFILLER_0_15_30 vssd1 vccd1 sky130_ef_sc_hd__decap_12
XPHY_32 vccd1 vssd1 sky130_fd_sc_hd__decap_3
XPHY_43 vccd1 vssd1 sky130_fd_sc_hd__decap_3
XPHY_54 vccd1 vssd1 sky130_fd_sc_hd__decap_3
XFILLER_0_31_73 vssd1 vccd1 sky130_fd_sc_hd__decap_4
XFILLER_0_3_51 vssd1 vccd1 sky130_fd_sc_hd__decap_4
XFILLER_0_12_53 vssd1 vccd1 sky130_ef_sc_hd__decap_12
Xinput17 vssd1 vccd1 select[0] _24_/S sky130_fd_sc_hd__clkbuf_2
XFILLER_0_8_29 vssd1 vccd1 sky130_ef_sc_hd__decap_12
X_16_ vccd1 vssd1 _23_/S1 _15_/Y _14_/X _24_/S _16_/Y _13_/X sky130_fd_sc_hd__a2111oi_1
XFILLER_0_18_41 vssd1 vccd1 sky130_ef_sc_hd__decap_12
XFILLER_0_20_53 vssd1 vccd1 sky130_ef_sc_hd__decap_12
XFILLER_0_0_41 vssd1 vccd1 sky130_ef_sc_hd__decap_12
XFILLER_0_15_42 vssd1 vccd1 sky130_ef_sc_hd__decap_12
XFILLER_0_29_51 vssd1 vccd1 sky130_fd_sc_hd__decap_4
XPHY_11 vccd1 vssd1 sky130_fd_sc_hd__decap_3
XPHY_22 vccd1 vssd1 sky130_fd_sc_hd__decap_3
XFILLER_0_12_65 vssd1 vccd1 sky130_ef_sc_hd__decap_12
XPHY_33 vccd1 vssd1 sky130_fd_sc_hd__decap_3
XPHY_44 vccd1 vssd1 sky130_fd_sc_hd__decap_3
XFILLER_0_26_41 vssd1 vccd1 sky130_ef_sc_hd__decap_12
XPHY_55 vccd1 vssd1 sky130_fd_sc_hd__decap_3
X_15_ vssd1 vccd1 _15_/C_N _20_/B _15_/Y _24_/S sky130_fd_sc_hd__nor3b_1
XFILLER_0_18_53 vssd1 vccd1 sky130_ef_sc_hd__decap_12
Xinput18 vccd1 vssd1 _20_/B select[1] sky130_fd_sc_hd__buf_2
XFILLER_0_0_53 vccd1 vssd1 sky130_fd_sc_hd__decap_3
XFILLER_0_20_65 vssd1 vccd1 sky130_ef_sc_hd__decap_12
XFILLER_0_24_6 vssd1 vccd1 sky130_ef_sc_hd__decap_12
XPHY_12 vccd1 vssd1 sky130_fd_sc_hd__decap_3
XFILLER_0_6_41 vssd1 vccd1 sky130_ef_sc_hd__decap_12
XFILLER_0_26_53 vssd1 vccd1 sky130_ef_sc_hd__decap_12
XFILLER_0_31_53 vccd1 vssd1 sky130_fd_sc_hd__decap_3
XPHY_23 vccd1 vssd1 sky130_fd_sc_hd__decap_3
XFILLER_0_12_77 vssd1 vccd1 sky130_fd_sc_hd__decap_4
XPHY_34 vccd1 vssd1 sky130_fd_sc_hd__decap_3
XPHY_45 vccd1 vssd1 sky130_fd_sc_hd__decap_3
XPHY_56 vccd1 vssd1 sky130_fd_sc_hd__decap_3
Xinput19 vssd1 vccd1 select[2] _23_/S1 sky130_fd_sc_hd__clkbuf_2
X_14_ _24_/S _20_/B _14_/X _14_/C vssd1 vccd1 sky130_fd_sc_hd__and3b_1
XFILLER_0_18_65 vssd1 vccd1 sky130_ef_sc_hd__decap_12
XFILLER_0_0_21 vccd1 vssd1 sky130_fd_sc_hd__decap_6
XFILLER_0_9_30 vssd1 vccd1 sky130_ef_sc_hd__decap_12
XFILLER_0_17_6 vccd1 vssd1 sky130_fd_sc_hd__decap_8
XFILLER_0_20_77 vssd1 vccd1 sky130_fd_sc_hd__decap_4
XFILLER_0_6_53 vssd1 vccd1 sky130_ef_sc_hd__decap_12
XPHY_13 vccd1 vssd1 sky130_fd_sc_hd__decap_3
XPHY_24 vccd1 vssd1 sky130_fd_sc_hd__decap_3
XPHY_35 vccd1 vssd1 sky130_fd_sc_hd__decap_3
XPHY_46 vccd1 vssd1 sky130_fd_sc_hd__decap_3
XFILLER_0_26_65 vssd1 vccd1 sky130_ef_sc_hd__decap_12
XPHY_57 vccd1 vssd1 sky130_fd_sc_hd__decap_3
XFILLER_0_9_42 vssd1 vccd1 sky130_ef_sc_hd__decap_12
X_13_ vssd1 vccd1 _13_/X _13_/A1 _20_/B _13_/A0 sky130_fd_sc_hd__mux2_1
XFILLER_0_18_77 vssd1 vccd1 sky130_fd_sc_hd__decap_4
XFILLER_0_6_10 vssd1 vccd1 sky130_ef_sc_hd__decap_12
XFILLER_0_26_77 vssd1 vccd1 sky130_fd_sc_hd__decap_4
XFILLER_0_31_33 vssd1 vccd1 sky130_ef_sc_hd__decap_12
XPHY_14 vccd1 vssd1 sky130_fd_sc_hd__decap_3
XFILLER_0_6_65 vssd1 vccd1 sky130_ef_sc_hd__decap_12
XPHY_25 vccd1 vssd1 sky130_fd_sc_hd__decap_3
XPHY_36 vccd1 vssd1 sky130_fd_sc_hd__decap_3
XPHY_47 vccd1 vssd1 sky130_fd_sc_hd__decap_3
XPHY_58 vccd1 vssd1 sky130_fd_sc_hd__decap_3
XFILLER_0_15_57 vssd1 vccd1 sky130_ef_sc_hd__decap_12
XFILLER_0_22_6 vccd1 vssd1 sky130_fd_sc_hd__decap_6
XFILLER_0_31_45 vccd1 vssd1 sky130_fd_sc_hd__decap_8
XFILLER_0_6_22 vccd1 vssd1 sky130_fd_sc_hd__decap_6
XFILLER_0_6_77 vssd1 vccd1 sky130_fd_sc_hd__decap_4
XPHY_15 vccd1 vssd1 sky130_fd_sc_hd__decap_3
XPHY_26 vccd1 vssd1 sky130_fd_sc_hd__decap_3
XPHY_37 vccd1 vssd1 sky130_fd_sc_hd__decap_3
XPHY_48 vccd1 vssd1 sky130_fd_sc_hd__decap_3