*SPEF "ieee 1481-1999"
*DESIGN "b0r1_aa"
*DATE "11:11:11 Fri 11 11, 1111"
*VENDOR "OpenRCX"
*PROGRAM "Parallel Extraction"
*VERSION "1.0"
*DESIGN_FLOW "NAME_SCOPE LOCAL" "PIN_CAP NONE"
*DIVIDER /
*DELIMITER :
*BUS_DELIMITER []
*T_UNIT 1 NS
*C_UNIT 1 PF
*R_UNIT 1 OHM
*L_UNIT 1 HENRY

*NAME_MAP
*1 X1_Y1
*2 X2_Y1
*3 X3_Y1
*4 X4_Y1
*5 X5_Y1
*6 s1
*7 s2
*8 s3
*9 s4
*10 s5
*11 start
*14 net1
*15 net10
*16 net11
*17 net2
*18 net3
*19 net4
*20 net5
*21 net6
*22 net7
*23 net8
*24 net9
*25 FILLER_0_0_109
*26 FILLER_0_0_113
*27 FILLER_0_0_125
*28 FILLER_0_0_137
*29 FILLER_0_0_141
*30 FILLER_0_0_15
*31 FILLER_0_0_153
*32 FILLER_0_0_165
*33 FILLER_0_0_169
*34 FILLER_0_0_181
*35 FILLER_0_0_193
*36 FILLER_0_0_197
*37 FILLER_0_0_209
*38 FILLER_0_0_221
*39 FILLER_0_0_225
*40 FILLER_0_0_237
*41 FILLER_0_0_249
*42 FILLER_0_0_253
*43 FILLER_0_0_261
*44 FILLER_0_0_27
*45 FILLER_0_0_281
*46 FILLER_0_0_29
*47 FILLER_0_0_3
*48 FILLER_0_0_41
*49 FILLER_0_0_53
*50 FILLER_0_0_57
*51 FILLER_0_0_69
*52 FILLER_0_0_81
*53 FILLER_0_0_85
*54 FILLER_0_0_97
*55 FILLER_0_1_105
*56 FILLER_0_1_111
*57 FILLER_0_1_113
*58 FILLER_0_1_125
*59 FILLER_0_1_137
*60 FILLER_0_1_149
*61 FILLER_0_1_15
*62 FILLER_0_1_161
*63 FILLER_0_1_167
*64 FILLER_0_1_169
*65 FILLER_0_1_181
*66 FILLER_0_1_193
*67 FILLER_0_1_205
*68 FILLER_0_1_217
*69 FILLER_0_1_223
*70 FILLER_0_1_225
*71 FILLER_0_1_237
*72 FILLER_0_1_249
*73 FILLER_0_1_261
*74 FILLER_0_1_27
*75 FILLER_0_1_273
*76 FILLER_0_1_281
*77 FILLER_0_1_3
*78 FILLER_0_1_39
*79 FILLER_0_1_51
*80 FILLER_0_1_55
*81 FILLER_0_1_57
*82 FILLER_0_1_69
*83 FILLER_0_1_81
*84 FILLER_0_1_93
*85 FILLER_0_2_109
*86 FILLER_0_2_113
*87 FILLER_0_2_125
*88 FILLER_0_2_137
*89 FILLER_0_2_141
*90 FILLER_0_2_149
*91 FILLER_0_2_15
*92 FILLER_0_2_154
*93 FILLER_0_2_166
*94 FILLER_0_2_169
*95 FILLER_0_2_181
*96 FILLER_0_2_193
*97 FILLER_0_2_197
*98 FILLER_0_2_209
*99 FILLER_0_2_215
*100 FILLER_0_2_219
*101 FILLER_0_2_223
*102 FILLER_0_2_225
*103 FILLER_0_2_237
*104 FILLER_0_2_249
*105 FILLER_0_2_253
*106 FILLER_0_2_261
*107 FILLER_0_2_27
*108 FILLER_0_2_281
*109 FILLER_0_2_29
*110 FILLER_0_2_3
*111 FILLER_0_2_41
*112 FILLER_0_2_53
*113 FILLER_0_2_57
*114 FILLER_0_2_69
*115 FILLER_0_2_81
*116 FILLER_0_2_85
*117 FILLER_0_2_97
*118 FILLER_0_3_15
*119 FILLER_0_3_27
*120 FILLER_0_3_3
*121 FILLER_0_3_39
*122 FILLER_0_3_51
*123 FILLER_0_3_55
*124 FILLER_0_3_57
*125 FILLER_0_3_69
*126 FILLER_0_3_81
*127 FILLER_0_3_89
*128 FILLER_0_4_15
*129 FILLER_0_4_27
*130 FILLER_0_4_29
*131 FILLER_0_4_3
*132 FILLER_0_4_41
*133 FILLER_0_4_53
*134 FILLER_0_4_65
*135 FILLER_0_4_77
*136 FILLER_0_4_83
*137 FILLER_0_4_85
*138 FILLER_0_4_89
*139 FILLER_0_5_18
*140 FILLER_0_5_30
*141 FILLER_0_5_42
*142 FILLER_0_5_54
*143 FILLER_0_5_57
*144 FILLER_0_5_6
*145 FILLER_0_5_69
*146 FILLER_0_5_81
*147 FILLER_0_5_89
*148 FILLER_0_6_15
*149 FILLER_0_6_27
*150 FILLER_0_6_29
*151 FILLER_0_6_3
*152 FILLER_0_6_41
*153 FILLER_0_6_53
*154 FILLER_0_6_65
*155 FILLER_0_6_77
*156 FILLER_0_6_83
*157 FILLER_0_6_85
*158 FILLER_0_6_89
*159 FILLER_0_7_15
*160 FILLER_0_7_27
*161 FILLER_0_7_3
*162 FILLER_0_7_39
*163 FILLER_0_7_51
*164 FILLER_0_7_55
*165 FILLER_0_7_57
*166 FILLER_0_7_69
*167 FILLER_0_7_81
*168 FILLER_0_7_89
*169 FILLER_0_8_15
*170 FILLER_0_8_27
*171 FILLER_0_8_29
*172 FILLER_0_8_3
*173 FILLER_0_8_41
*174 FILLER_0_8_53
*175 FILLER_0_8_65
*176 FILLER_0_8_77
*177 FILLER_0_8_83
*178 FILLER_0_8_85
*179 FILLER_0_8_89
*180 FILLER_0_9_15
*181 FILLER_0_9_24
*182 FILLER_0_9_29
*183 FILLER_0_9_3
*184 FILLER_0_9_41
*185 FILLER_0_9_53
*186 FILLER_0_9_57
*187 FILLER_0_9_69
*188 FILLER_0_9_81
*189 FILLER_0_9_85
*190 FILLER_0_9_89
*191 PHY_0
*192 PHY_1
*193 PHY_10
*194 PHY_11
*195 PHY_12
*196 PHY_13
*197 PHY_14
*198 PHY_15
*199 PHY_16
*200 PHY_17
*201 PHY_18
*202 PHY_19
*203 PHY_2
*204 PHY_3
*205 PHY_4
*206 PHY_5
*207 PHY_6
*208 PHY_7
*209 PHY_8
*210 PHY_9
*211 TAP_20
*212 TAP_21
*213 TAP_22
*214 TAP_23
*215 TAP_24
*216 TAP_25
*217 TAP_26
*218 TAP_27
*219 TAP_28
*220 TAP_29
*221 TAP_30
*222 TAP_31
*223 TAP_32
*224 TAP_33
*225 TAP_34
*226 TAP_35
*227 TAP_36
*228 TAP_37
*229 TAP_38
*230 TAP_39
*231 TAP_40
*232 TAP_41
*233 TAP_42
*234 TAP_43
*235 TAP_44
*236 TAP_45
*237 TAP_46
*238 TAP_47
*239 TAP_48
*240 TAP_49
*241 TAP_50
*242 TAP_51
*243 TAP_52
*244 TAP_53
*245 TAP_54
*246 TAP_55
*247 TAP_56
*248 input1
*249 input2
*250 input3
*251 input4
*252 input5
*253 input6
*254 inst1
*255 output10
*256 output11
*257 output7
*258 output8
*259 output9

*PORTS
X1_Y1 O
X2_Y1 O
X3_Y1 O
X4_Y1 O
X5_Y1 O
s1 I
s2 I
s3 I
s4 I
s5 I
start I

*D_NET *1 0.00227083
*CONN
*P X1_Y1 O
*I *257:X O *D sky130_fd_sc_hd__buf_12
*CAP
1 X1_Y1 0.000791167
2 *257:X 0.000344246
3 *1:8 0.00113541
4 *1:8 *24:14 0
*RES
1 *257:X *1:8 45.0118 
2 *1:8 X1_Y1 10.9904 
*END

*D_NET *2 0.00228115
*CONN
*P X2_Y1 O
*I *258:X O *D sky130_fd_sc_hd__buf_12
*CAP
1 X2_Y1 0.000559213
2 *258:X 0.000477285
3 *2:12 0.0010365
4 *2:12 X3_Y1 5.27826e-05
5 *2:12 *254:s5 0.000155375
*RES
1 *258:X *2:12 46.9175 
2 *2:12 X2_Y1 9.4448 
*END

*D_NET *3 0.00306151
*CONN
*P X3_Y1 O
*I *259:X O *D sky130_fd_sc_hd__buf_12
*CAP
1 X3_Y1 0.00106145
2 *259:X 3.77894e-05
3 *3:8 0.00109924
4 X3_Y1 *254:s5 0
5 X3_Y1 *10:27 0.000810253
6 *2:12 X3_Y1 5.27826e-05
*RES
1 *259:X *3:8 38.6214 
2 *3:8 X3_Y1 22.7006 
*END

*D_NET *4 0.00430472
*CONN
*P X4_Y1 O
*I *255:X O *D sky130_fd_sc_hd__buf_12
*CAP
1 X4_Y1 0.00120765
2 *255:X 0.000114718
3 *4:12 0.00132237
4 X4_Y1 *10:27 0.00153568
5 *4:12 *255:A 2.02517e-05
6 *4:12 *10:27 5.50049e-05
7 *4:12 *20:10 4.90536e-05
*RES
1 *255:X *4:12 40.5686 
2 *4:12 X4_Y1 29.5631 
*END

*D_NET *5 0.00323164
*CONN
*P X5_Y1 O
*I *256:X O *D sky130_fd_sc_hd__buf_12
*CAP
1 X5_Y1 0.001365
2 *256:X 0.000250818
3 *5:8 0.00161582
4 X5_Y1 *16:11 0
*RES
1 *256:X *5:8 42.4329 
2 *5:8 X5_Y1 35.4983 
*END

*D_NET *6 0.00102935
*CONN
*P s1 I
*I *248:A I *D sky130_fd_sc_hd__clkbuf_1
*CAP
1 s1 0.000514675
2 *248:A 0.000514675
*RES
1 s1 *248:A 48.875 
*END

*D_NET *7 0.00106125
*CONN
*P s2 I
*I *249:A I *D sky130_fd_sc_hd__clkbuf_1
*CAP
1 s2 0.00050227
2 *249:A 0.00050227
3 *249:A *14:14 5.67058e-05
*RES
1 s2 *249:A 48.875 
*END

*D_NET *8 0.00373962
*CONN
*P s3 I
*I *250:A I *D sky130_fd_sc_hd__buf_1
*CAP
1 s3 0.00137889
2 *250:A 0
3 *8:23 0.00137889
4 *8:23 *18:10 0.000981836
*RES
1 s3 *8:23 46.8127 
2 *8:23 *250:A 38 
*END

*D_NET *9 0.00300947
*CONN
*P s4 I
*I *251:A I *D sky130_fd_sc_hd__buf_1
*CAP
1 s4 0.00150473
2 *251:A 0
3 *9:21 0.00150473
*RES
1 s4 *9:21 46.0904 
2 *9:21 *251:A 38 
*END

*D_NET *10 0.00557712
*CONN
*P s5 I
*I *252:A I *D sky130_fd_sc_hd__clkbuf_1
*CAP
1 s5 0.00067282
2 *252:A 0
3 *10:27 0.00070084
4 *10:19 0.00137366
5 *10:27 *254:s5 0
6 *10:27 *255:A 0.000111308
7 *10:27 *20:10 0.000317553
8 X3_Y1 *10:27 0.000810253
9 X4_Y1 *10:27 0.00153568
10 *4:12 *10:27 5.50049e-05
*RES
1 s5 *10:19 27.8307 
2 *10:19 *10:27 42.4361 
3 *10:27 *252:A 23 
*END

*D_NET *11 0.000624949
*CONN
*P start I
*I *253:A I *D sky130_fd_sc_hd__buf_1
*CAP
1 start 0.000312475
2 *253:A 0
3 *11:13 0.000312475
*RES
1 start *11:13 27.2332 
2 *11:13 *253:A 23 
*END

*D_NET *14 0.00550884
*CONN
*I *254:s1 I *D sky130_osu_ring_oscillator_mpr2ca_8_b0r1
*I *248:X O *D sky130_fd_sc_hd__clkbuf_1
*CAP
1 *254:s1 0
2 *248:X 0.00112671
3 *14:14 0.00121055
4 *14:8 0.00233726
5 *14:14 *254:s2 2.78377e-05
6 *14:14 *17:8 0.000749775
7 *249:A *14:14 5.67058e-05
*RES
1 *248:X *14:8 42.4611 
2 *14:8 *14:14 29.3055 
3 *14:14 *254:s1 23 
*END

*D_NET *15 0.00321855
*CONN
*I *255:A I *D sky130_fd_sc_hd__buf_12
*I *254:X4_Y1 O *D sky130_osu_ring_oscillator_mpr2ca_8_b0r1
*CAP
1 *255:A 0.000623367
2 *254:X4_Y1 0.000732735
3 *15:11 0.0013561
4 *15:11 *24:14 0.000374782
5 *4:12 *255:A 2.02517e-05
6 *10:27 *255:A 0.000111308
*RES
1 *254:X4_Y1 *15:11 46.1105 
2 *15:11 *255:A 32.0936 
*END

*D_NET *16 0.00136786
*CONN
*I *256:A I *D sky130_fd_sc_hd__buf_12
*I *254:X5_Y1 O *D sky130_osu_ring_oscillator_mpr2ca_8_b0r1
*CAP
1 *256:A 0
2 *254:X5_Y1 0.000683929
3 *16:11 0.000683929
4 *16:11 *254:s5 0
5 X5_Y1 *16:11 0
*RES
1 *254:X5_Y1 *16:11 44.3498 
2 *16:11 *256:A 23 
*END

*D_NET *17 0.00408933
*CONN
*I *254:s2 I *D sky130_osu_ring_oscillator_mpr2ca_8_b0r1
*I *249:X O *D sky130_fd_sc_hd__clkbuf_1
*CAP
1 *254:s2 0.000907881
2 *249:X 0.000422875
3 *17:8 0.00133076
4 *254:s2 *254:s3 0.000205977
5 *17:8 *254:start 0.000444233
6 *14:14 *254:s2 2.78377e-05
7 *14:14 *17:8 0.000749775
*RES
1 *249:X *17:8 38.6393 
2 *17:8 *254:s2 20.3311 
*END

*D_NET *18 0.00417027
*CONN
*I *254:s3 I *D sky130_osu_ring_oscillator_mpr2ca_8_b0r1
*I *250:X O *D sky130_fd_sc_hd__buf_1
*CAP
1 *254:s3 0.000931439
2 *250:X 0
3 *18:10 0.00135169
4 *18:6 0.000420255
5 *18:10 *22:8 0.000279066
6 *254:s2 *254:s3 0.000205977
7 *8:23 *18:10 0.000981836
*RES
1 *250:X *18:6 38 
2 *18:6 *18:10 31.6957 
3 *18:10 *254:s3 21.0043 
*END

*D_NET *19 0.00318687
*CONN
*I *254:s4 I *D sky130_osu_ring_oscillator_mpr2ca_8_b0r1
*I *251:X O *D sky130_fd_sc_hd__buf_1
*CAP
1 *254:s4 0.000838597
2 *251:X 0.000528475
3 *19:8 0.00136707
4 *19:8 *23:14 0.000452726
*RES
1 *251:X *19:8 46.7207 
2 *19:8 *254:s4 18.3684 
*END

*D_NET *20 0.00287252
*CONN
*I *254:s5 I *D sky130_osu_ring_oscillator_mpr2ca_8_b0r1
*I *252:X O *D sky130_fd_sc_hd__clkbuf_1
*CAP
1 *254:s5 0.000878318
2 *252:X 0.000296951
3 *20:10 0.00117527
4 X3_Y1 *254:s5 0
5 *2:12 *254:s5 0.000155375
6 *4:12 *20:10 4.90536e-05
7 *10:27 *254:s5 0
8 *10:27 *20:10 0.000317553
9 *16:11 *254:s5 0
*RES
1 *252:X *20:10 44.3593 
2 *20:10 *254:s5 18.9121 
*END

*D_NET *21 0.00851386
*CONN
*I *254:start I *D sky130_osu_ring_oscillator_mpr2ca_8_b0r1
*I *253:X O *D sky130_fd_sc_hd__buf_1
*CAP
1 *254:start 0.00138394
2 *253:X 0
3 *21:8 0.00403482
4 *21:4 0.00265087
5 *17:8 *254:start 0.000444233
*RES
1 *253:X *21:4 23 
2 *21:4 *21:8 49.9243 
3 *21:8 *254:start 42.4982 
*END

*D_NET *22 0.00960561
*CONN
*I *257:A I *D sky130_fd_sc_hd__buf_12
*I *254:X1_Y1 O *D sky130_osu_ring_oscillator_mpr2ca_8_b0r1
*CAP
1 *257:A 0
2 *254:X1_Y1 0.000594934
3 *22:18 0.000376413
4 *22:10 0.00406834
5 *22:8 0.00428686
6 *22:18 *24:14 0
7 *18:10 *22:8 0.000279066
*RES
1 *254:X1_Y1 *22:8 45.0852 
2 *22:8 *22:10 48.7407 
3 *22:10 *22:18 37.0221 
4 *22:18 *257:A 23 
*END

*D_NET *23 0.00509108
*CONN
*I *258:A I *D sky130_fd_sc_hd__buf_12
*I *254:X2_Y1 O *D sky130_osu_ring_oscillator_mpr2ca_8_b0r1
*CAP
1 *258:A 0
2 *254:X2_Y1 0.000606667
3 *23:14 0.00171251
4 *23:10 0.00231918
5 *19:8 *23:14 0.000452726
*RES
1 *254:X2_Y1 *23:10 43.1173 
2 *23:10 *23:14 34.945 
3 *23:14 *258:A 23 
*END

*D_NET *24 0.00494343
*CONN
*I *259:A I *D sky130_fd_sc_hd__buf_12
*I *254:X3_Y1 O *D sky130_osu_ring_oscillator_mpr2ca_8_b0r1
*CAP
1 *259:A 0.000436553
2 *254:X3_Y1 0.000456602
3 *24:14 0.00182772
4 *24:8 0.00184777
5 *1:8 *24:14 0
6 *15:11 *24:14 0.000374782
7 *22:18 *24:14 0
*RES
1 *254:X3_Y1 *24:8 40.1552 
2 *24:8 *24:14 42.6743 
3 *24:14 *259:A 45.7679 
*END
