*SPEF "ieee 1481-1999"
*DESIGN "b0r1_aa"
*DATE "11:11:11 Fri 11 11, 1111"
*VENDOR "OpenRCX"
*PROGRAM "Parallel Extraction"
*VERSION "1.0"
*DESIGN_FLOW "NAME_SCOPE LOCAL" "PIN_CAP NONE"
*DIVIDER /
*DELIMITER :
*BUS_DELIMITER []
*T_UNIT 1 NS
*C_UNIT 1 PF
*R_UNIT 1 OHM
*L_UNIT 1 HENRY

*NAME_MAP
*1 X1_Y1
*2 X2_Y1
*3 X3_Y1
*4 X4_Y1
*5 X5_Y1
*6 s1
*7 s2
*8 s3
*9 s4
*10 s5
*11 start
*14 net1
*15 net10
*16 net11
*17 net2
*18 net3
*19 net4
*20 net5
*21 net6
*22 net7
*23 net8
*24 net9
*25 FILLER_0_0_109
*26 FILLER_0_0_113
*27 FILLER_0_0_125
*28 FILLER_0_0_137
*29 FILLER_0_0_141
*30 FILLER_0_0_15
*31 FILLER_0_0_153
*32 FILLER_0_0_165
*33 FILLER_0_0_169
*34 FILLER_0_0_181
*35 FILLER_0_0_193
*36 FILLER_0_0_197
*37 FILLER_0_0_209
*38 FILLER_0_0_221
*39 FILLER_0_0_225
*40 FILLER_0_0_237
*41 FILLER_0_0_249
*42 FILLER_0_0_253
*43 FILLER_0_0_261
*44 FILLER_0_0_27
*45 FILLER_0_0_281
*46 FILLER_0_0_29
*47 FILLER_0_0_3
*48 FILLER_0_0_41
*49 FILLER_0_0_53
*50 FILLER_0_0_57
*51 FILLER_0_0_69
*52 FILLER_0_0_81
*53 FILLER_0_0_85
*54 FILLER_0_0_97
*55 FILLER_0_1_105
*56 FILLER_0_1_111
*57 FILLER_0_1_113
*58 FILLER_0_1_125
*59 FILLER_0_1_137
*60 FILLER_0_1_149
*61 FILLER_0_1_15
*62 FILLER_0_1_161
*63 FILLER_0_1_167
*64 FILLER_0_1_169
*65 FILLER_0_1_181
*66 FILLER_0_1_193
*67 FILLER_0_1_205
*68 FILLER_0_1_217
*69 FILLER_0_1_223
*70 FILLER_0_1_225
*71 FILLER_0_1_237
*72 FILLER_0_1_249
*73 FILLER_0_1_261
*74 FILLER_0_1_27
*75 FILLER_0_1_273
*76 FILLER_0_1_281
*77 FILLER_0_1_3
*78 FILLER_0_1_39
*79 FILLER_0_1_51
*80 FILLER_0_1_55
*81 FILLER_0_1_57
*82 FILLER_0_1_69
*83 FILLER_0_1_81
*84 FILLER_0_1_93
*85 FILLER_0_2_109
*86 FILLER_0_2_113
*87 FILLER_0_2_125
*88 FILLER_0_2_137
*89 FILLER_0_2_141
*90 FILLER_0_2_149
*91 FILLER_0_2_15
*92 FILLER_0_2_154
*93 FILLER_0_2_166
*94 FILLER_0_2_169
*95 FILLER_0_2_181
*96 FILLER_0_2_193
*97 FILLER_0_2_197
*98 FILLER_0_2_209
*99 FILLER_0_2_215
*100 FILLER_0_2_219
*101 FILLER_0_2_223
*102 FILLER_0_2_225
*103 FILLER_0_2_237
*104 FILLER_0_2_249
*105 FILLER_0_2_253
*106 FILLER_0_2_261
*107 FILLER_0_2_27
*108 FILLER_0_2_281
*109 FILLER_0_2_29
*110 FILLER_0_2_3
*111 FILLER_0_2_41
*112 FILLER_0_2_53
*113 FILLER_0_2_57
*114 FILLER_0_2_69
*115 FILLER_0_2_81
*116 FILLER_0_2_85
*117 FILLER_0_2_97
*118 FILLER_0_3_15
*119 FILLER_0_3_27
*120 FILLER_0_3_3
*121 FILLER_0_3_39
*122 FILLER_0_3_51
*123 FILLER_0_3_55
*124 FILLER_0_3_57
*125 FILLER_0_3_69
*126 FILLER_0_3_81
*127 FILLER_0_3_89
*128 FILLER_0_4_15
*129 FILLER_0_4_27
*130 FILLER_0_4_29
*131 FILLER_0_4_3
*132 FILLER_0_4_41
*133 FILLER_0_4_53
*134 FILLER_0_4_65
*135 FILLER_0_4_77
*136 FILLER_0_4_83
*137 FILLER_0_4_85
*138 FILLER_0_4_89
*139 FILLER_0_5_18
*140 FILLER_0_5_30
*141 FILLER_0_5_42
*142 FILLER_0_5_54
*143 FILLER_0_5_57
*144 FILLER_0_5_6
*145 FILLER_0_5_69
*146 FILLER_0_5_81
*147 FILLER_0_5_89
*148 FILLER_0_6_15
*149 FILLER_0_6_27
*150 FILLER_0_6_29
*151 FILLER_0_6_3
*152 FILLER_0_6_41
*153 FILLER_0_6_53
*154 FILLER_0_6_65
*155 FILLER_0_6_77
*156 FILLER_0_6_83
*157 FILLER_0_6_85
*158 FILLER_0_6_89
*159 FILLER_0_7_15
*160 FILLER_0_7_27
*161 FILLER_0_7_3
*162 FILLER_0_7_39
*163 FILLER_0_7_51
*164 FILLER_0_7_55
*165 FILLER_0_7_57
*166 FILLER_0_7_69
*167 FILLER_0_7_81
*168 FILLER_0_7_89
*169 FILLER_0_8_15
*170 FILLER_0_8_27
*171 FILLER_0_8_29
*172 FILLER_0_8_3
*173 FILLER_0_8_41
*174 FILLER_0_8_53
*175 FILLER_0_8_65
*176 FILLER_0_8_77
*177 FILLER_0_8_83
*178 FILLER_0_8_85
*179 FILLER_0_8_89
*180 FILLER_0_9_15
*181 FILLER_0_9_24
*182 FILLER_0_9_29
*183 FILLER_0_9_3
*184 FILLER_0_9_41
*185 FILLER_0_9_53
*186 FILLER_0_9_57
*187 FILLER_0_9_69
*188 FILLER_0_9_81
*189 FILLER_0_9_85
*190 FILLER_0_9_89
*191 PHY_0
*192 PHY_1
*193 PHY_10
*194 PHY_11
*195 PHY_12
*196 PHY_13
*197 PHY_14
*198 PHY_15
*199 PHY_16
*200 PHY_17
*201 PHY_18
*202 PHY_19
*203 PHY_2
*204 PHY_3
*205 PHY_4
*206 PHY_5
*207 PHY_6
*208 PHY_7
*209 PHY_8
*210 PHY_9
*211 TAP_20
*212 TAP_21
*213 TAP_22
*214 TAP_23
*215 TAP_24
*216 TAP_25
*217 TAP_26
*218 TAP_27
*219 TAP_28
*220 TAP_29
*221 TAP_30
*222 TAP_31
*223 TAP_32
*224 TAP_33
*225 TAP_34
*226 TAP_35
*227 TAP_36
*228 TAP_37
*229 TAP_38
*230 TAP_39
*231 TAP_40
*232 TAP_41
*233 TAP_42
*234 TAP_43
*235 TAP_44
*236 TAP_45
*237 TAP_46
*238 TAP_47
*239 TAP_48
*240 TAP_49
*241 TAP_50
*242 TAP_51
*243 TAP_52
*244 TAP_53
*245 TAP_54
*246 TAP_55
*247 TAP_56
*248 input1
*249 input2
*250 input3
*251 input4
*252 input5
*253 input6
*254 inst1
*255 output10
*256 output11
*257 output7
*258 output8
*259 output9

*PORTS
X1_Y1 O
X2_Y1 O
X3_Y1 O
X4_Y1 O
X5_Y1 O
s1 I
s2 I
s3 I
s4 I
s5 I
start I

*D_NET *1 0.00202155
*CONN
*P X1_Y1 O
*I *257:X O *D sky130_fd_sc_hd__buf_12
*CAP
1 X1_Y1 0.00101077
2 *257:X 0.00101077
3 X1_Y1 *259:A 0
*RES
1 *257:X X1_Y1 11.2067 
*END

*D_NET *2 0.00190718
*CONN
*P X2_Y1 O
*I *258:X O *D sky130_fd_sc_hd__buf_12
*CAP
1 X2_Y1 0.000862079
2 *258:X 0.000862079
3 X2_Y1 X3_Y1 5.36026e-05
4 X2_Y1 *254:s5 0.000129424
*RES
1 *258:X X2_Y1 11.5379 
*END

*D_NET *3 0.00253092
*CONN
*P X3_Y1 O
*I *259:X O *D sky130_fd_sc_hd__buf_12
*CAP
1 X3_Y1 0.000901386
2 *259:X 0.000901386
3 X3_Y1 *252:A 0.000674549
4 X3_Y1 *254:s5 0
5 X2_Y1 X3_Y1 5.36026e-05
*RES
1 *259:X X3_Y1 15.1177 
*END

*D_NET *4 0.00363248
*CONN
*P X4_Y1 O
*I *255:X O *D sky130_fd_sc_hd__buf_12
*CAP
1 X4_Y1 0.00112155
2 *255:X 0.00112155
3 X4_Y1 *252:A 0.00132462
4 X4_Y1 *254:s5 4.62027e-05
5 X4_Y1 *255:A 1.85674e-05
*RES
1 *255:X X4_Y1 21.4892 
*END

*D_NET *5 0.00290278
*CONN
*P X5_Y1 O
*I *256:X O *D sky130_fd_sc_hd__buf_12
*CAP
1 X5_Y1 0.00145139
2 *256:X 0.00145139
3 X5_Y1 *256:A 0
*RES
1 *256:X X5_Y1 27.2037 
*END

*D_NET *6 0.000908073
*CONN
*P s1 I
*I *248:A I *D sky130_fd_sc_hd__clkbuf_1
*CAP
1 s1 0.000454037
2 *248:A 0.000454037
*RES
1 s1 *248:A 11.475 
*END

*D_NET *7 0.000935196
*CONN
*P s2 I
*I *249:A I *D sky130_fd_sc_hd__clkbuf_1
*CAP
1 s2 0.000442617
2 *249:A 0.000442617
3 *249:A *254:s1 4.99619e-05
*RES
1 s2 *249:A 11.475 
*END

*D_NET *8 0.00324056
*CONN
*P s3 I
*I *250:A I *D sky130_fd_sc_hd__buf_1
*CAP
1 s3 0.00120597
2 *250:A 0.00120597
3 *250:A *254:s3 0.000828633
*RES
1 s3 *250:A 26.8895 
*END

*D_NET *9 0.0026888
*CONN
*P s4 I
*I *251:A I *D sky130_fd_sc_hd__buf_1
*CAP
1 s4 0.0013444
2 *251:A 0.0013444
*RES
1 s4 *251:A 26.3607 
*END

*D_NET *10 0.00477896
*CONN
*P s5 I
*I *252:A I *D sky130_fd_sc_hd__clkbuf_1
*CAP
1 s5 0.00119899
2 *252:A 0.00119899
3 *252:A *254:s5 0.000279787
4 *252:A *255:A 0.000102024
5 X3_Y1 *252:A 0.000674549
6 X4_Y1 *252:A 0.00132462
*RES
1 s5 *252:A 33.0057 
*END

*D_NET *11 0.000536542
*CONN
*P start I
*I *253:A I *D sky130_fd_sc_hd__buf_1
*CAP
1 start 0.000268271
2 *253:A 0.000268271
*RES
1 start *253:A 7.15043 
*END

*D_NET *14 0.00493231
*CONN
*I *254:s1 I *D sky130_osu_ring_oscillator_mpr2ca_8_b0r1
*I *248:X O *D sky130_fd_sc_hd__clkbuf_1
*CAP
1 *254:s1 0.00208154
2 *248:X 0.00208154
3 *254:s1 *254:s2 0.000719266
4 *249:A *254:s1 4.99619e-05
*RES
1 *248:X *254:s1 38.5137 
*END

*D_NET *15 0.00276301
*CONN
*I *255:A I *D sky130_fd_sc_hd__buf_12
*I *254:X4_Y1 O *D sky130_osu_ring_oscillator_mpr2ca_8_b0r1
*CAP
1 *255:A 0.00116463
2 *254:X4_Y1 0.00116463
3 *255:A *259:A 0.000313152
4 X4_Y1 *255:A 1.85674e-05
5 *252:A *255:A 0.000102024
*RES
1 *254:X4_Y1 *255:A 23.8512 
*END

*D_NET *16 0.00119918
*CONN
*I *256:A I *D sky130_fd_sc_hd__buf_12
*I *254:X5_Y1 O *D sky130_osu_ring_oscillator_mpr2ca_8_b0r1
*CAP
1 *256:A 0.000599588
2 *254:X5_Y1 0.000599588
3 *256:A *254:s5 0
4 X5_Y1 *256:A 0
*RES
1 *254:X5_Y1 *256:A 15.9913 
*END

*D_NET *17 0.00361651
*CONN
*I *254:s2 I *D sky130_osu_ring_oscillator_mpr2ca_8_b0r1
*I *249:X O *D sky130_fd_sc_hd__clkbuf_1
*CAP
1 *254:s2 0.00115444
2 *249:X 0.00115444
3 *254:s2 *254:s3 0.000185528
4 *254:s2 *254:start 7.6727e-05
5 *254:s2 *21:16 0.000326118
6 *254:s1 *254:s2 0.000719266
*RES
1 *249:X *254:s2 27.6475 
*END

*D_NET *18 0.00366686
*CONN
*I *254:s3 I *D sky130_osu_ring_oscillator_mpr2ca_8_b0r1
*I *250:X O *D sky130_fd_sc_hd__buf_1
*CAP
1 *254:s3 0.00117657
2 *250:X 0.00117657
3 *254:s3 *22:8 0.000299546
4 *250:A *254:s3 0.000828633
5 *254:s2 *254:s3 0.000185528
*RES
1 *250:X *254:s3 32.9 
*END

*D_NET *19 0.00282585
*CONN
*I *254:s4 I *D sky130_osu_ring_oscillator_mpr2ca_8_b0r1
*I *251:X O *D sky130_fd_sc_hd__buf_1
*CAP
1 *254:s4 0.00120524
2 *251:X 0.00120524
3 *254:s4 *258:A 0.00041537
*RES
1 *251:X *254:s4 23.2162 
*END

*D_NET *20 0.002507
*CONN
*I *254:s5 I *D sky130_osu_ring_oscillator_mpr2ca_8_b0r1
*I *252:X O *D sky130_fd_sc_hd__clkbuf_1
*CAP
1 *254:s5 0.00102579
2 *252:X 0.00102579
3 X2_Y1 *254:s5 0.000129424
4 X3_Y1 *254:s5 0
5 X4_Y1 *254:s5 4.62027e-05
6 *252:A *254:s5 0.000279787
7 *256:A *254:s5 0
*RES
1 *252:X *254:s5 21.9 
*END

*D_NET *21 0.00741455
*CONN
*I *254:start I *D sky130_osu_ring_oscillator_mpr2ca_8_b0r1
*I *253:X O *D sky130_fd_sc_hd__buf_1
*CAP
1 *254:start 3.97663e-05
2 *253:X 0.00346608
3 *21:16 0.00350585
4 *254:s2 *254:start 7.6727e-05
5 *254:s2 *21:16 0.000326118
*RES
1 *253:X *21:16 49.715 
2 *21:16 *254:start 1.0875 
*END

*D_NET *22 0.00841512
*CONN
*I *257:A I *D sky130_fd_sc_hd__buf_12
*I *254:X1_Y1 O *D sky130_osu_ring_oscillator_mpr2ca_8_b0r1
*CAP
1 *257:A 0.00355099
2 *254:X1_Y1 0.000506803
3 *22:8 0.00405779
4 *257:A *259:A 0
5 *254:s3 *22:8 0.000299546
*RES
1 *254:X1_Y1 *22:8 14.9237 
2 *22:8 *257:A 45.98 
*END

*D_NET *23 0.00454073
*CONN
*I *258:A I *D sky130_fd_sc_hd__buf_12
*I *254:X2_Y1 O *D sky130_osu_ring_oscillator_mpr2ca_8_b0r1
*CAP
1 *258:A 0.00206268
2 *254:X2_Y1 0.00206268
3 *254:s4 *258:A 0.00041537
*RES
1 *254:X2_Y1 *258:A 40.4038 
*END

*D_NET *24 0.00428322
*CONN
*I *259:A I *D sky130_fd_sc_hd__buf_12
*I *254:X3_Y1 O *D sky130_osu_ring_oscillator_mpr2ca_8_b0r1
*CAP
1 *259:A 0.00198504
2 *254:X3_Y1 0.00198504
3 X1_Y1 *259:A 0
4 *255:A *259:A 0.000313152
5 *257:A *259:A 0
*RES
1 *254:X3_Y1 *259:A 42.6188 
*END
