*SPEF "ieee 1481-1999"
*DESIGN "mux16x1_project"
*DATE "11:11:11 Fri 11 11, 1111"
*VENDOR "OpenRCX"
*PROGRAM "Parallel Extraction"
*VERSION "1.0"
*DESIGN_FLOW "NAME_SCOPE LOCAL" "PIN_CAP NONE"
*DIVIDER /
*DELIMITER :
*BUS_DELIMITER []
*T_UNIT 1 NS
*C_UNIT 1 PF
*R_UNIT 1 OHM
*L_UNIT 1 HENRY

*NAME_MAP
*1 data_in[0]
*2 data_in[10]
*3 data_in[11]
*4 data_in[12]
*5 data_in[13]
*6 data_in[14]
*7 data_in[15]
*8 data_in[1]
*9 data_in[2]
*10 data_in[3]
*11 data_in[4]
*12 data_in[5]
*13 data_in[6]
*14 data_in[7]
*15 data_in[8]
*16 data_in[9]
*17 select[0]
*18 select[1]
*19 select[2]
*20 select[3]
*23 y
*24 _00_
*25 _01_
*26 _02_
*27 _03_
*28 _04_
*29 _05_
*30 _06_
*31 _07_
*32 _08_
*33 _09_
*34 _10_
*35 _11_
*36 _12_
*37 net1
*38 net10
*39 net11
*40 net12
*41 net13
*42 net14
*43 net15
*44 net16
*45 net17
*46 net18
*47 net19
*48 net2
*49 net20
*50 net21
*51 net3
*52 net4
*53 net5
*54 net6
*55 net7
*56 net8
*57 net9
*58 FILLER_0_0_21
*59 FILLER_0_0_27
*60 FILLER_0_0_29
*61 FILLER_0_0_41
*62 FILLER_0_0_53
*63 FILLER_0_0_57
*64 FILLER_0_0_69
*65 FILLER_0_0_9
*66 FILLER_0_10_10
*67 FILLER_0_10_22
*68 FILLER_0_10_29
*69 FILLER_0_10_41
*70 FILLER_0_10_53
*71 FILLER_0_10_65
*72 FILLER_0_10_77
*73 FILLER_0_11_20
*74 FILLER_0_11_32
*75 FILLER_0_11_44
*76 FILLER_0_11_57
*77 FILLER_0_11_69
*78 FILLER_0_12_18
*79 FILLER_0_12_26
*80 FILLER_0_12_29
*81 FILLER_0_12_41
*82 FILLER_0_12_53
*83 FILLER_0_12_6
*84 FILLER_0_12_65
*85 FILLER_0_12_77
*86 FILLER_0_13_21
*87 FILLER_0_13_33
*88 FILLER_0_13_45
*89 FILLER_0_13_53
*90 FILLER_0_13_57
*91 FILLER_0_13_69
*92 FILLER_0_13_9
*93 FILLER_0_14_15
*94 FILLER_0_14_27
*95 FILLER_0_14_29
*96 FILLER_0_14_3
*97 FILLER_0_14_41
*98 FILLER_0_14_53
*99 FILLER_0_14_65
*100 FILLER_0_14_77
*101 FILLER_0_15_18
*102 FILLER_0_15_30
*103 FILLER_0_15_42
*104 FILLER_0_15_54
*105 FILLER_0_15_57
*106 FILLER_0_15_6
*107 FILLER_0_15_69
*108 FILLER_0_16_15
*109 FILLER_0_16_27
*110 FILLER_0_16_29
*111 FILLER_0_16_3
*112 FILLER_0_16_41
*113 FILLER_0_16_53
*114 FILLER_0_17_21
*115 FILLER_0_17_33
*116 FILLER_0_17_45
*117 FILLER_0_17_53
*118 FILLER_0_17_57
*119 FILLER_0_17_6
*120 FILLER_0_17_69
*121 FILLER_0_18_11
*122 FILLER_0_18_16
*123 FILLER_0_18_29
*124 FILLER_0_18_3
*125 FILLER_0_18_41
*126 FILLER_0_18_53
*127 FILLER_0_18_65
*128 FILLER_0_18_77
*129 FILLER_0_19_15
*130 FILLER_0_19_27
*131 FILLER_0_19_3
*132 FILLER_0_19_39
*133 FILLER_0_19_51
*134 FILLER_0_19_55
*135 FILLER_0_19_57
*136 FILLER_0_19_69
*137 FILLER_0_1_15
*138 FILLER_0_1_27
*139 FILLER_0_1_3
*140 FILLER_0_1_39
*141 FILLER_0_1_51
*142 FILLER_0_1_55
*143 FILLER_0_1_57
*144 FILLER_0_1_69
*145 FILLER_0_20_18
*146 FILLER_0_20_26
*147 FILLER_0_20_29
*148 FILLER_0_20_41
*149 FILLER_0_20_53
*150 FILLER_0_20_6
*151 FILLER_0_20_65
*152 FILLER_0_20_77
*153 FILLER_0_21_15
*154 FILLER_0_21_27
*155 FILLER_0_21_3
*156 FILLER_0_21_39
*157 FILLER_0_21_51
*158 FILLER_0_21_55
*159 FILLER_0_21_57
*160 FILLER_0_21_69
*161 FILLER_0_22_12
*162 FILLER_0_22_22
*163 FILLER_0_22_29
*164 FILLER_0_22_41
*165 FILLER_0_22_53
*166 FILLER_0_22_6
*167 FILLER_0_22_65
*168 FILLER_0_22_77
*169 FILLER_0_23_24
*170 FILLER_0_23_36
*171 FILLER_0_23_48
*172 FILLER_0_23_57
*173 FILLER_0_23_69
*174 FILLER_0_24_18
*175 FILLER_0_24_26
*176 FILLER_0_24_29
*177 FILLER_0_24_41
*178 FILLER_0_24_53
*179 FILLER_0_24_6
*180 FILLER_0_24_65
*181 FILLER_0_24_77
*182 FILLER_0_25_24
*183 FILLER_0_25_36
*184 FILLER_0_25_48
*185 FILLER_0_25_57
*186 FILLER_0_25_69
*187 FILLER_0_26_15
*188 FILLER_0_26_27
*189 FILLER_0_26_29
*190 FILLER_0_26_3
*191 FILLER_0_26_41
*192 FILLER_0_26_53
*193 FILLER_0_26_65
*194 FILLER_0_26_77
*195 FILLER_0_27_18
*196 FILLER_0_27_30
*197 FILLER_0_27_42
*198 FILLER_0_27_54
*199 FILLER_0_27_57
*200 FILLER_0_27_6
*201 FILLER_0_27_69
*202 FILLER_0_28_15
*203 FILLER_0_28_27
*204 FILLER_0_28_29
*205 FILLER_0_28_3
*206 FILLER_0_28_41
*207 FILLER_0_28_53
*208 FILLER_0_28_65
*209 FILLER_0_28_77
*210 FILLER_0_29_15
*211 FILLER_0_29_27
*212 FILLER_0_29_3
*213 FILLER_0_29_39
*214 FILLER_0_29_51
*215 FILLER_0_29_55
*216 FILLER_0_29_57
*217 FILLER_0_29_69
*218 FILLER_0_2_18
*219 FILLER_0_2_26
*220 FILLER_0_2_29
*221 FILLER_0_2_41
*222 FILLER_0_2_53
*223 FILLER_0_2_6
*224 FILLER_0_2_65
*225 FILLER_0_2_77
*226 FILLER_0_30_18
*227 FILLER_0_30_26
*228 FILLER_0_30_29
*229 FILLER_0_30_41
*230 FILLER_0_30_53
*231 FILLER_0_30_6
*232 FILLER_0_30_65
*233 FILLER_0_30_77
*234 FILLER_0_31_13
*235 FILLER_0_31_25
*236 FILLER_0_31_33
*237 FILLER_0_31_45
*238 FILLER_0_31_53
*239 FILLER_0_31_61
*240 FILLER_0_31_73
*241 FILLER_0_31_77
*242 FILLER_0_3_15
*243 FILLER_0_3_27
*244 FILLER_0_3_3
*245 FILLER_0_3_39
*246 FILLER_0_3_51
*247 FILLER_0_3_55
*248 FILLER_0_3_57
*249 FILLER_0_3_69
*250 FILLER_0_4_18
*251 FILLER_0_4_26
*252 FILLER_0_4_29
*253 FILLER_0_4_41
*254 FILLER_0_4_53
*255 FILLER_0_4_6
*256 FILLER_0_4_65
*257 FILLER_0_4_77
*258 FILLER_0_5_12
*259 FILLER_0_5_24
*260 FILLER_0_5_36
*261 FILLER_0_5_48
*262 FILLER_0_5_57
*263 FILLER_0_5_69
*264 FILLER_0_6_10
*265 FILLER_0_6_22
*266 FILLER_0_6_29
*267 FILLER_0_6_41
*268 FILLER_0_6_53
*269 FILLER_0_6_6
*270 FILLER_0_6_65
*271 FILLER_0_6_77
*272 FILLER_0_7_18
*273 FILLER_0_7_3
*274 FILLER_0_7_30
*275 FILLER_0_7_42
*276 FILLER_0_7_54
*277 FILLER_0_7_57
*278 FILLER_0_7_69
*279 FILLER_0_8_14
*280 FILLER_0_8_26
*281 FILLER_0_8_29
*282 FILLER_0_8_3
*283 FILLER_0_8_41
*284 FILLER_0_8_53
*285 FILLER_0_8_65
*286 FILLER_0_8_77
*287 FILLER_0_9_18
*288 FILLER_0_9_30
*289 FILLER_0_9_42
*290 FILLER_0_9_54
*291 FILLER_0_9_57
*292 FILLER_0_9_6
*293 FILLER_0_9_69
*294 PHY_0
*295 PHY_1
*296 PHY_10
*297 PHY_11
*298 PHY_12
*299 PHY_13
*300 PHY_14
*301 PHY_15
*302 PHY_16
*303 PHY_17
*304 PHY_18
*305 PHY_19
*306 PHY_2
*307 PHY_20
*308 PHY_21
*309 PHY_22
*310 PHY_23
*311 PHY_24
*312 PHY_25
*313 PHY_26
*314 PHY_27
*315 PHY_28
*316 PHY_29
*317 PHY_3
*318 PHY_30
*319 PHY_31
*320 PHY_32
*321 PHY_33
*322 PHY_34
*323 PHY_35
*324 PHY_36
*325 PHY_37
*326 PHY_38
*327 PHY_39
*328 PHY_4
*329 PHY_40
*330 PHY_41
*331 PHY_42
*332 PHY_43
*333 PHY_44
*334 PHY_45
*335 PHY_46
*336 PHY_47
*337 PHY_48
*338 PHY_49
*339 PHY_5
*340 PHY_50
*341 PHY_51
*342 PHY_52
*343 PHY_53
*344 PHY_54
*345 PHY_55
*346 PHY_56
*347 PHY_57
*348 PHY_58
*349 PHY_59
*350 PHY_6
*351 PHY_60
*352 PHY_61
*353 PHY_62
*354 PHY_63
*355 PHY_7
*356 PHY_8
*357 PHY_9
*358 TAP_64
*359 TAP_65
*360 TAP_66
*361 TAP_67
*362 TAP_68
*363 TAP_69
*364 TAP_70
*365 TAP_71
*366 TAP_72
*367 TAP_73
*368 TAP_74
*369 TAP_75
*370 TAP_76
*371 TAP_77
*372 TAP_78
*373 TAP_79
*374 TAP_80
*375 TAP_81
*376 TAP_82
*377 TAP_83
*378 TAP_84
*379 TAP_85
*380 TAP_86
*381 TAP_87
*382 TAP_88
*383 TAP_89
*384 TAP_90
*385 TAP_91
*386 TAP_92
*387 TAP_93
*388 TAP_94
*389 TAP_95
*390 TAP_96
*391 TAP_97
*392 _13_
*393 _14_
*394 _15_
*395 _16_
*396 _17_
*397 _18_
*398 _19_
*399 _20_
*400 _21_
*401 _22_
*402 _23_
*403 _24_
*404 _25_
*405 _26_
*406 input1
*407 input10
*408 input11
*409 input12
*410 input13
*411 input14
*412 input15
*413 input16
*414 input17
*415 input18
*416 input19
*417 input2
*418 input20
*419 input3
*420 input4
*421 input5
*422 input6
*423 input7
*424 input8
*425 input9
*426 output21

*PORTS
data_in[0] I
data_in[10] I
data_in[11] I
data_in[12] I
data_in[13] I
data_in[14] I
data_in[15] I
data_in[1] I
data_in[2] I
data_in[3] I
data_in[4] I
data_in[5] I
data_in[6] I
data_in[7] I
data_in[8] I
data_in[9] I
select[0] I
select[1] I
select[2] I
select[3] I
y O

*D_NET *1 0.0016485
*CONN
*P data_in[0] I
*I *406:A I *D sky130_fd_sc_hd__clkbuf_1
*CAP
1 data_in[0] 0.000582415
2 *406:A 0.000582415
3 *406:A *401:A0 0
4 *406:A *414:A 4.99619e-05
5 *406:A *424:A 0.000311005
6 *406:A *425:A 0
7 *406:A *45:12 0.000122699
*RES
1 data_in[0] *406:A 14.2887 
*END

*D_NET *2 0.000449898
*CONN
*P data_in[10] I
*I *417:A I *D sky130_fd_sc_hd__clkbuf_1
*CAP
1 data_in[10] 0.000224949
2 *417:A 0.000224949
3 *417:A *413:A 0
4 *417:A *419:A 0
*RES
1 data_in[10] *417:A 6.38543 
*END

*D_NET *3 0.000600527
*CONN
*P data_in[11] I
*I *419:A I *D sky130_fd_sc_hd__clkbuf_1
*CAP
1 data_in[11] 0.000300264
2 *419:A 0.000300264
3 *419:A *396:S 0
4 *419:A *420:A 0
5 *417:A *419:A 0
*RES
1 data_in[11] *419:A 7.66043 
*END

*D_NET *4 0.00047291
*CONN
*P data_in[12] I
*I *420:A I *D sky130_fd_sc_hd__clkbuf_1
*CAP
1 data_in[12] 0.000236455
2 *420:A 0.000236455
3 *420:A *396:A1 0
4 *420:A *421:A 0
5 *419:A *420:A 0
*RES
1 data_in[12] *420:A 6.64043 
*END

*D_NET *5 0.000501009
*CONN
*P data_in[13] I
*I *421:A I *D sky130_fd_sc_hd__clkbuf_1
*CAP
1 data_in[13] 0.000250505
2 *421:A 0.000250505
3 *421:A *396:A1 0
4 *421:A *422:A 0
5 *420:A *421:A 0
*RES
1 data_in[13] *421:A 6.89543 
*END

*D_NET *6 0.000613375
*CONN
*P data_in[14] I
*I *422:A I *D sky130_fd_sc_hd__clkbuf_1
*CAP
1 data_in[14] 0.000306688
2 *422:A 0.000306688
3 *422:A *423:A 0
4 *421:A *422:A 0
*RES
1 data_in[14] *422:A 7.91543 
*END

*D_NET *7 0.00129264
*CONN
*P data_in[15] I
*I *423:A I *D sky130_fd_sc_hd__clkbuf_1
*CAP
1 data_in[15] 0.00064632
2 *423:A 0.00064632
3 *422:A *423:A 0
*RES
1 data_in[15] *423:A 11.3037 
*END

*D_NET *8 0.00142159
*CONN
*P data_in[1] I
*I *424:A I *D sky130_fd_sc_hd__clkbuf_1
*CAP
1 data_in[1] 0.000427314
2 *424:A 0.000427314
3 *424:A *401:A0 0.000122801
4 *424:A *414:A 6.71516e-05
5 *424:A *425:A 0
6 *424:A *45:12 6.60042e-05
7 *406:A *424:A 0.000311005
*RES
1 data_in[1] *424:A 10.252 
*END

*D_NET *9 0.000613375
*CONN
*P data_in[2] I
*I *425:A I *D sky130_fd_sc_hd__clkbuf_1
*CAP
1 data_in[2] 0.000306688
2 *425:A 0.000306688
3 *425:A *402:A0 0
4 *425:A *407:A 0
5 *406:A *425:A 0
6 *424:A *425:A 0
*RES
1 data_in[2] *425:A 7.91543 
*END

*D_NET *10 0.000533577
*CONN
*P data_in[3] I
*I *407:A I *D sky130_fd_sc_hd__clkbuf_1
*CAP
1 data_in[3] 0.000264963
2 *407:A 0.000264963
3 *407:A *401:A1 3.64998e-06
4 *407:A *402:A0 0
5 *407:A *408:A 0
6 *425:A *407:A 0
*RES
1 data_in[3] *407:A 7.15043 
*END

*D_NET *11 0.000480721
*CONN
*P data_in[4] I
*I *408:A I *D sky130_fd_sc_hd__clkbuf_1
*CAP
1 data_in[4] 0.00024036
2 *408:A 0.00024036
3 *408:A *401:A1 0
4 *408:A *409:A 0
5 *407:A *408:A 0
*RES
1 data_in[4] *408:A 6.64043 
*END

*D_NET *12 0.000493569
*CONN
*P data_in[5] I
*I *409:A I *D sky130_fd_sc_hd__clkbuf_1
*CAP
1 data_in[5] 0.000246784
2 *409:A 0.000246784
3 *409:A *402:A3 0
4 *409:A *410:A 0
5 *408:A *409:A 0
*RES
1 data_in[5] *409:A 6.89543 
*END

*D_NET *13 0.000613375
*CONN
*P data_in[6] I
*I *410:A I *D sky130_fd_sc_hd__clkbuf_1
*CAP
1 data_in[6] 0.000306688
2 *410:A 0.000306688
3 *410:A *411:A 0
4 *410:A *45:18 0
5 *409:A *410:A 0
*RES
1 data_in[6] *410:A 7.91543 
*END

*D_NET *14 0.000529101
*CONN
*P data_in[7] I
*I *411:A I *D sky130_fd_sc_hd__clkbuf_1
*CAP
1 data_in[7] 0.00026455
2 *411:A 0.00026455
3 *411:A *412:A 0
4 *411:A *45:18 0
5 *410:A *411:A 0
*RES
1 data_in[7] *411:A 7.15043 
*END

*D_NET *15 0.000641466
*CONN
*P data_in[8] I
*I *412:A I *D sky130_fd_sc_hd__clkbuf_1
*CAP
1 data_in[8] 0.000320733
2 *412:A 0.000320733
3 *412:A *394:C_N 0
4 *412:A *413:A 0
5 *412:A *45:18 0
6 *411:A *412:A 0
*RES
1 data_in[8] *412:A 8.17043 
*END

*D_NET *16 0.00050845
*CONN
*P data_in[9] I
*I *413:A I *D sky130_fd_sc_hd__clkbuf_1
*CAP
1 data_in[9] 0.000254225
2 *413:A 0.000254225
3 *413:A *45:24 0
4 *412:A *413:A 0
5 *417:A *413:A 0
*RES
1 data_in[9] *413:A 6.89543 
*END

*D_NET *17 0.00102115
*CONN
*P select[0] I
*I *414:A I *D sky130_fd_sc_hd__clkbuf_2
*CAP
1 select[0] 0.000452017
2 *414:A 0.000452017
3 *406:A *414:A 4.99619e-05
4 *424:A *414:A 6.71516e-05
*RES
1 select[0] *414:A 11.91 
*END

*D_NET *18 0.000919741
*CONN
*P select[1] I
*I *415:A I *D sky130_fd_sc_hd__buf_2
*CAP
1 select[1] 0.000446444
2 *415:A 0.000446444
3 *415:A *46:10 2.68526e-05
*RES
1 select[1] *415:A 11.37 
*END

*D_NET *19 0.00103124
*CONN
*P select[2] I
*I *416:A I *D sky130_fd_sc_hd__clkbuf_2
*CAP
1 select[2] 0.000515618
2 *416:A 0.000515618
*RES
1 select[2] *416:A 12.15 
*END

*D_NET *20 0.000957647
*CONN
*P select[3] I
*I *418:A I *D sky130_fd_sc_hd__buf_1
*CAP
1 select[3] 0.000478823
2 *418:A 0.000478823
*RES
1 select[3] *418:A 11.925 
*END

*D_NET *23 0.000980457
*CONN
*P y O
*I *426:X O *D sky130_fd_sc_hd__buf_12
*CAP
1 y 0.000490228
2 *426:X 0.000490228
*RES
1 *426:X y 6.54483 
*END

*D_NET *24 0.000151127
*CONN
*I *395:A2 I *D sky130_fd_sc_hd__a2111oi_1
*I *392:X O *D sky130_fd_sc_hd__mux2_1
*CAP
1 *395:A2 7.55634e-05
2 *392:X 7.55634e-05
*RES
1 *392:X *395:A2 3.995 
*END

*D_NET *25 0.000674921
*CONN
*I *395:B1 I *D sky130_fd_sc_hd__a2111oi_1
*I *393:X O *D sky130_fd_sc_hd__and3b_1
*CAP
1 *395:B1 0.000201994
2 *393:X 0.000201994
3 *395:B1 *400:A1 3.6227e-05
4 *395:B1 *400:B1 3.86607e-05
5 *395:B1 *46:40 0.000196045
*RES
1 *393:X *395:B1 10.245 
*END

*D_NET *26 0.00125043
*CONN
*I *395:C1 I *D sky130_fd_sc_hd__a2111oi_1
*I *394:Y O *D sky130_fd_sc_hd__nor3b_1
*CAP
1 *395:C1 0.000341658
2 *394:Y 0.000341658
3 *395:C1 *395:A1 0.000160496
4 *395:C1 *395:D1 9.53428e-06
5 *395:C1 *400:B1 9.50342e-06
6 *395:C1 *405:A2 0.000135304
7 *395:C1 *47:24 0.000252275
*RES
1 *394:Y *395:C1 13.59 
*END

*D_NET *27 0.00167965
*CONN
*I *400:B1 I *D sky130_fd_sc_hd__a41o_1
*I *395:Y O *D sky130_fd_sc_hd__a2111oi_1
*CAP
1 *400:B1 0.000259437
2 *395:Y 0.000259437
3 *400:B1 *400:A1 0.00010948
4 *400:B1 *405:A2 0.000682245
5 *400:B1 *46:40 0.00017122
6 *400:B1 *46:57 0.000122797
7 *400:B1 *47:24 2.68721e-05
8 *395:B1 *400:B1 3.86607e-05
9 *395:C1 *400:B1 9.50342e-06
*RES
1 *395:Y *400:B1 16.365 
*END

*D_NET *28 0.000342967
*CONN
*I *397:B I *D sky130_fd_sc_hd__nand2_1
*I *396:X O *D sky130_fd_sc_hd__mux2_1
*CAP
1 *397:B 0.000171483
2 *396:X 0.000171483
3 *397:B *399:C_N 0
*RES
1 *396:X *397:B 9.375 
*END

*D_NET *29 0.00076065
*CONN
*I *400:A2 I *D sky130_fd_sc_hd__a41o_1
*I *397:Y O *D sky130_fd_sc_hd__nand2_1
*CAP
1 *400:A2 0.000224794
2 *397:Y 0.000224794
3 *400:A2 *392:A1 0.000143464
4 *400:A2 *397:A 4.9253e-06
5 *400:A2 *398:C 0
6 *400:A2 *400:A3 7.23602e-05
7 *400:A2 *400:A4 9.03138e-05
*RES
1 *397:Y *400:A2 11.115 
*END

*D_NET *30 0.000621978
*CONN
*I *400:A3 I *D sky130_fd_sc_hd__a41o_1
*I *398:Y O *D sky130_fd_sc_hd__nand3b_1
*CAP
1 *400:A3 0.000167694
2 *398:Y 0.000167694
3 *400:A3 *392:A1 7.4027e-05
4 *400:A3 *398:A_N 6.62785e-06
5 *400:A3 *400:A4 8.52883e-05
6 *400:A3 *45:45 4.82863e-05
7 *400:A2 *400:A3 7.23602e-05
*RES
1 *398:Y *400:A3 9.9 
*END

*D_NET *31 0.000781267
*CONN
*I *400:A4 I *D sky130_fd_sc_hd__a41o_1
*I *399:X O *D sky130_fd_sc_hd__or3b_1
*CAP
1 *400:A4 0.000206355
2 *399:X 0.000206355
3 *400:A4 *392:A1 1.52945e-05
4 *400:A4 *398:A_N 3.49615e-05
5 *400:A4 *45:45 2.02647e-05
6 *400:A4 *46:57 0.000122435
7 *400:A2 *400:A4 9.03138e-05
8 *400:A3 *400:A4 8.52883e-05
*RES
1 *399:X *400:A4 11.64 
*END

*D_NET *32 0.00330997
*CONN
*I *405:A2 I *D sky130_fd_sc_hd__a21oi_2
*I *400:X O *D sky130_fd_sc_hd__a41o_1
*CAP
1 *405:A2 0.00106118
2 *400:X 0.00106118
3 *405:A2 *46:57 4.77719e-05
4 *405:A2 *47:24 0.000322286
5 *395:C1 *405:A2 0.000135304
6 *400:B1 *405:A2 0.000682245
*RES
1 *400:X *405:A2 28.905 
*END

*D_NET *33 0.000576628
*CONN
*I *403:A1 I *D sky130_fd_sc_hd__mux2_1
*I *401:X O *D sky130_fd_sc_hd__mux4_1
*CAP
1 *403:A1 0.000270094
2 *401:X 0.000270094
3 *403:A1 *403:S 3.64403e-05
*RES
1 *401:X *403:A1 10.515 
*END

*D_NET *34 0.00137743
*CONN
*I *403:A0 I *D sky130_fd_sc_hd__mux2_1
*I *402:X O *D sky130_fd_sc_hd__mux4_1
*CAP
1 *403:A0 0.000456375
2 *402:X 0.000456375
3 *403:A0 *403:S 4.82863e-05
4 *403:A0 *47:14 0.000114858
5 *403:A0 *47:18 0.000169591
6 *403:A0 *47:24 0.00013194
*RES
1 *402:X *403:A0 15.45 
*END

*D_NET *35 0.000980498
*CONN
*I *404:B I *D sky130_fd_sc_hd__nor2_1
*I *403:X O *D sky130_fd_sc_hd__mux2_1
*CAP
1 *404:B 0.000367417
2 *403:X 0.000367417
3 *404:B *401:A3 0
4 *404:B *47:24 0.000245663
*RES
1 *403:X *404:B 14.955 
*END

*D_NET *36 0.000208356
*CONN
*I *405:B1 I *D sky130_fd_sc_hd__a21oi_2
*I *404:Y O *D sky130_fd_sc_hd__nor2_1
*CAP
1 *405:B1 8.39101e-05
2 *404:Y 8.39101e-05
3 *405:B1 *401:A3 0
4 *405:B1 *405:A1 0
5 *405:B1 *47:24 4.05358e-05
*RES
1 *404:Y *405:B1 8.685 
*END

*D_NET *37 0.00224498
*CONN
*I *402:A0 I *D sky130_fd_sc_hd__mux4_1
*I *406:X O *D sky130_fd_sc_hd__clkbuf_1
*CAP
1 *402:A0 0.000526422
2 *406:X 0.000526422
3 *402:A0 *401:A0 0.000265598
4 *402:A0 *401:A1 6.90543e-05
5 *402:A0 *402:A1 0.000832491
6 *402:A0 *45:12 2.49909e-05
7 *407:A *402:A0 0
8 *425:A *402:A0 0
*RES
1 *406:X *402:A0 20.685 
*END

*D_NET *38 0.00139843
*CONN
*I *401:A1 I *D sky130_fd_sc_hd__mux4_1
*I *407:X O *D sky130_fd_sc_hd__clkbuf_1
*CAP
1 *401:A1 0.000408565
2 *407:X 0.000408565
3 *401:A1 *401:A0 0
4 *401:A1 *402:A1 0.000187766
5 *401:A1 *402:A3 0.000320834
6 *402:A0 *401:A1 6.90543e-05
7 *407:A *401:A1 3.64998e-06
8 *408:A *401:A1 0
*RES
1 *407:X *401:A1 15.495 
*END

*D_NET *39 0.000947587
*CONN
*I *402:A2 I *D sky130_fd_sc_hd__mux4_1
*I *408:X O *D sky130_fd_sc_hd__clkbuf_1
*CAP
1 *402:A2 0.000355534
2 *408:X 0.000355534
3 *402:A2 *402:S0 1.10377e-05
4 *402:A2 *45:12 0.00011099
5 *402:A2 *46:10 4.38051e-05
6 *402:A2 *46:16 7.06865e-05
*RES
1 *408:X *402:A2 11.9888 
*END

*D_NET *40 0.0010332
*CONN
*I *401:A2 I *D sky130_fd_sc_hd__mux4_1
*I *409:X O *D sky130_fd_sc_hd__clkbuf_1
*CAP
1 *401:A2 0.000312824
2 *409:X 0.000312824
3 *401:A2 *403:S 2.75229e-05
4 *401:A2 *45:12 0.00011099
5 *401:A2 *45:18 0.000173328
6 *401:A2 *46:16 6.33739e-05
7 *401:A2 *47:24 3.23391e-05
*RES
1 *409:X *401:A2 11.9888 
*END

*D_NET *41 0.00224506
*CONN
*I *402:A3 I *D sky130_fd_sc_hd__mux4_1
*I *410:X O *D sky130_fd_sc_hd__clkbuf_1
*CAP
1 *402:A3 0.000581261
2 *410:X 0.000581261
3 *402:A3 *401:A0 0.000276931
4 *402:A3 *401:A3 2.03321e-05
5 *402:A3 *402:A1 1.16578e-05
6 *402:A3 *402:S0 6.93898e-05
7 *402:A3 *45:12 0
8 *402:A3 *45:18 0.000321522
9 *402:A3 *46:22 6.18754e-05
10 *401:A1 *402:A3 0.000320834
11 *409:A *402:A3 0
*RES
1 *410:X *402:A3 20.505 
*END

*D_NET *42 0.00243962
*CONN
*I *401:A3 I *D sky130_fd_sc_hd__mux4_1
*I *411:X O *D sky130_fd_sc_hd__clkbuf_1
*CAP
1 *401:A3 0.000657459
2 *411:X 0.000657459
3 *401:A3 *45:12 0
4 *401:A3 *46:16 6.93898e-05
5 *401:A3 *46:22 0.00103498
6 *401:A3 *47:24 0
7 *402:A3 *401:A3 2.03321e-05
8 *404:B *401:A3 0
9 *405:B1 *401:A3 0
*RES
1 *411:X *401:A3 21.75 
*END

*D_NET *43 0.000702369
*CONN
*I *394:C_N I *D sky130_fd_sc_hd__nor3b_1
*I *412:X O *D sky130_fd_sc_hd__clkbuf_1
*CAP
1 *394:C_N 0.000190427
2 *412:X 0.000190427
3 *394:C_N *45:18 0.000288932
4 *394:C_N *45:24 3.25831e-05
5 *412:A *394:C_N 0
*RES
1 *412:X *394:C_N 11.325 
*END

*D_NET *44 0.000379778
*CONN
*I *392:A0 I *D sky130_fd_sc_hd__mux2_1
*I *413:X O *D sky130_fd_sc_hd__clkbuf_1
*CAP
1 *392:A0 9.25523e-05
2 *413:X 9.25523e-05
3 *392:A0 *392:S 4.82863e-05
4 *392:A0 *45:24 7.4027e-05
5 *392:A0 *46:24 7.23602e-05
*RES
1 *413:X *392:A0 8.865 
*END

*D_NET *45 0.0124167
*CONN
*I *403:S I *D sky130_fd_sc_hd__mux2_1
*I *394:A I *D sky130_fd_sc_hd__nor3b_1
*I *395:A1 I *D sky130_fd_sc_hd__a2111oi_1
*I *393:A_N I *D sky130_fd_sc_hd__and3b_1
*I *399:A I *D sky130_fd_sc_hd__or3b_1
*I *398:A_N I *D sky130_fd_sc_hd__nand3b_1
*I *397:A I *D sky130_fd_sc_hd__nand2_1
*I *414:X O *D sky130_fd_sc_hd__clkbuf_2
*CAP
1 *403:S 0.000152458
2 *394:A 0
3 *395:A1 0.000371296
4 *393:A_N 3.61979e-05
5 *399:A 0
6 *398:A_N 0.000335055
7 *397:A 0.000127707
8 *414:X 0.000965856
9 *45:76 0.000371296
10 *45:45 0.000472431
11 *45:26 0.0005238
12 *45:24 0.000586546
13 *45:18 0.00101731
14 *45:12 0.00184399
15 *395:A1 *395:D1 9.53428e-06
16 *395:A1 *46:24 0
17 *395:A1 *47:24 0.000291111
18 *397:A *392:A1 1.83847e-05
19 *397:A *396:S 0.000139933
20 *397:A *399:C_N 0.000208484
21 *397:A *46:57 7.70828e-05
22 *45:12 *401:A0 0
23 *45:12 *46:10 0.000571603
24 *45:12 *46:16 0.000126749
25 *45:12 *47:24 1.49348e-05
26 *45:18 *46:22 0.00161055
27 *45:18 *46:24 9.50342e-06
28 *45:24 *392:A1 7.89767e-05
29 *45:24 *46:24 0.000244216
30 *45:24 *46:32 2.33136e-05
31 *45:26 *392:A1 0.000312815
32 *45:26 *399:C_N 9.50342e-06
33 *45:26 *46:57 0.000132096
34 *45:45 *399:B 2.01259e-05
35 *392:A0 *45:24 7.4027e-05
36 *394:C_N *45:18 0.000288932
37 *394:C_N *45:24 3.25831e-05
38 *395:C1 *395:A1 0.000160496
39 *400:A2 *397:A 4.9253e-06
40 *400:A3 *398:A_N 6.62785e-06
41 *400:A3 *45:45 4.82863e-05
42 *400:A4 *398:A_N 3.49615e-05
43 *400:A4 *45:45 2.02647e-05
44 *401:A2 *403:S 2.75229e-05
45 *401:A2 *45:12 0.00011099
46 *401:A2 *45:18 0.000173328
47 *401:A3 *45:12 0
48 *402:A0 *45:12 2.49909e-05
49 *402:A2 *45:12 0.00011099
50 *402:A3 *45:12 0
51 *402:A3 *45:18 0.000321522
52 *403:A0 *403:S 4.82863e-05
53 *403:A1 *403:S 3.64403e-05
54 *406:A *45:12 0.000122699
55 *410:A *45:18 0
56 *411:A *45:18 0
57 *412:A *45:18 0
58 *413:A *45:24 0
59 *424:A *45:12 6.60042e-05
*RES
1 *414:X *45:12 26.33 
2 *45:12 *45:18 23.33 
3 *45:18 *45:24 6.525 
4 *45:24 *45:26 6.48 
5 *45:26 *397:A 7.14 
6 *45:26 *45:45 4.46 
7 *45:45 *398:A_N 6.16 
8 *45:45 *399:A 1.6 
9 *45:24 *393:A_N 4.05 
10 *45:18 *45:76 2 
11 *45:76 *395:A1 13.205 
12 *45:76 *394:A 1.6 
13 *45:12 *403:S 4.6 
*END

*D_NET *46 0.0135044
*CONN
*I *402:S0 I *D sky130_fd_sc_hd__mux4_1
*I *401:S0 I *D sky130_fd_sc_hd__mux4_1
*I *394:B I *D sky130_fd_sc_hd__nor3b_1
*I *392:S I *D sky130_fd_sc_hd__mux2_1
*I *393:B I *D sky130_fd_sc_hd__and3b_1
*I *399:B I *D sky130_fd_sc_hd__or3b_1
*I *396:S I *D sky130_fd_sc_hd__mux2_1
*I *398:B I *D sky130_fd_sc_hd__nand3b_1
*I *415:X O *D sky130_fd_sc_hd__buf_2
*CAP
1 *402:S0 0.000179728
2 *401:S0 2.15379e-05
3 *394:B 0
4 *392:S 5.59699e-05
5 *393:B 0
6 *399:B 0.000112269
7 *396:S 0.000190395
8 *398:B 0.000111382
9 *415:X 0.00112718
10 *46:57 0.000636871
11 *46:40 0.000738174
12 *46:32 0.000411335
13 *46:24 0.000338059
14 *46:22 0.000841723
15 *46:16 0.000950078
16 *46:10 0.00155706
17 *396:S *399:C_N 9.9535e-05
18 *398:B *398:C 9.50342e-06
19 *46:10 *47:18 5.4003e-05
20 *46:16 *47:18 0.000288932
21 *46:16 *47:24 7.70828e-05
22 *46:22 *426:A 0
23 *46:22 *47:24 0
24 *46:24 *47:24 0
25 *46:32 *392:A1 0.000120186
26 *46:32 *400:A1 0
27 *46:32 *47:24 0
28 *46:40 *392:A1 0
29 *46:40 *400:A1 0.000373963
30 *46:57 *400:A1 2.20014e-05
31 *392:A0 *392:S 4.82863e-05
32 *392:A0 *46:24 7.23602e-05
33 *395:A1 *46:24 0
34 *395:B1 *46:40 0.000196045
35 *397:A *396:S 0.000139933
36 *397:A *46:57 7.70828e-05
37 *400:A4 *46:57 0.000122435
38 *400:B1 *46:40 0.00017122
39 *400:B1 *46:57 0.000122797
40 *401:A2 *46:16 6.33739e-05
41 *401:A3 *46:16 6.93898e-05
42 *401:A3 *46:22 0.00103498
43 *402:A2 *402:S0 1.10377e-05
44 *402:A2 *46:10 4.38051e-05
45 *402:A2 *46:16 7.06865e-05
46 *402:A3 *402:S0 6.93898e-05
47 *402:A3 *46:22 6.18754e-05
48 *405:A2 *46:57 4.77719e-05
49 *415:A *46:10 2.68526e-05
50 *419:A *396:S 0
51 *45:12 *46:10 0.000571603
52 *45:12 *46:16 0.000126749
53 *45:18 *46:22 0.00161055
54 *45:18 *46:24 9.50342e-06
55 *45:24 *46:24 0.000244216
56 *45:24 *46:32 2.33136e-05
57 *45:26 *46:57 0.000132096
58 *45:45 *399:B 2.01259e-05
*RES
1 *415:X *46:10 22.845 
2 *46:10 *46:16 8.015 
3 *46:16 *46:22 23.225 
4 *46:22 *46:24 3.93 
5 *46:24 *46:32 4.445 
6 *46:32 *46:40 9.83 
7 *46:40 *398:B 5.235 
8 *46:40 *46:57 10.3 
9 *46:57 *396:S 7.725 
10 *46:57 *399:B 4.74 
11 *46:32 *393:B 1.6 
12 *46:24 *392:S 4.665 
13 *46:22 *394:B 3.6 
14 *46:16 *401:S0 1.96 
15 *46:10 *402:S0 5.79 
*END

*D_NET *47 0.00930494
*CONN
*I *402:S1 I *D sky130_fd_sc_hd__mux4_1
*I *401:S1 I *D sky130_fd_sc_hd__mux4_1
*I *395:D1 I *D sky130_fd_sc_hd__a2111oi_1
*I *400:A1 I *D sky130_fd_sc_hd__a41o_1
*I *416:X O *D sky130_fd_sc_hd__clkbuf_2
*CAP
1 *402:S1 0
2 *401:S1 0
3 *395:D1 7.80961e-05
4 *400:A1 0.000390245
5 *416:X 0.00164837
6 *47:24 0.00151553
7 *47:18 0.00114369
8 *47:14 0.00174488
9 *400:A1 *392:A1 0
10 *400:A1 *393:C 0
11 *47:24 *405:A1 6.55328e-05
12 *47:24 *426:A 9.54399e-05
13 *395:A1 *395:D1 9.53428e-06
14 *395:A1 *47:24 0.000291111
15 *395:B1 *400:A1 3.6227e-05
16 *395:C1 *395:D1 9.53428e-06
17 *395:C1 *47:24 0.000252275
18 *400:B1 *400:A1 0.00010948
19 *400:B1 *47:24 2.68721e-05
20 *401:A2 *47:24 3.23391e-05
21 *401:A3 *47:24 0
22 *403:A0 *47:14 0.000114858
23 *403:A0 *47:18 0.000169591
24 *403:A0 *47:24 0.00013194
25 *404:B *47:24 0.000245663
26 *405:A2 *47:24 0.000322286
27 *405:B1 *47:24 4.05358e-05
28 *45:12 *47:24 1.49348e-05
29 *46:10 *47:18 5.4003e-05
30 *46:16 *47:18 0.000288932
31 *46:16 *47:24 7.70828e-05
32 *46:22 *47:24 0
33 *46:24 *47:24 0
34 *46:32 *400:A1 0
35 *46:32 *47:24 0
36 *46:40 *400:A1 0.000373963
37 *46:57 *400:A1 2.20014e-05
*RES
1 *416:X *47:14 32.045 
2 *47:14 *47:18 5.93 
3 *47:18 *47:24 25.14 
4 *47:24 *400:A1 11.865 
5 *47:24 *395:D1 4.755 
6 *47:18 *401:S1 3.6 
7 *47:14 *402:S1 1.6 
*END

*D_NET *48 0.000313561
*CONN
*I *393:C I *D sky130_fd_sc_hd__and3b_1
*I *417:X O *D sky130_fd_sc_hd__clkbuf_1
*CAP
1 *393:C 0.000120601
2 *417:X 0.000120601
3 *393:C *392:A1 7.23602e-05
4 *400:A1 *393:C 0
*RES
1 *417:X *393:C 8.865 
*END

*D_NET *49 0.00635476
*CONN
*I *405:A1 I *D sky130_fd_sc_hd__a21oi_2
*I *404:A I *D sky130_fd_sc_hd__nor2_1
*I *418:X O *D sky130_fd_sc_hd__buf_1
*CAP
1 *405:A1 0.000104001
2 *404:A 8.55084e-05
3 *418:X 0.00156038
4 *49:12 0.00158423
5 *49:10 0.0029551
6 *405:B1 *405:A1 0
7 *47:24 *405:A1 6.55328e-05
*RES
1 *418:X *49:10 31.715 
2 *49:10 *49:12 20.805 
3 *49:12 *404:A 2.74 
4 *49:12 *405:A1 7.595 
*END

*D_NET *50 0.00345628
*CONN
*I *426:A I *D sky130_fd_sc_hd__buf_12
*I *405:Y O *D sky130_fd_sc_hd__a21oi_2
*CAP
1 *426:A 0.00168042
2 *405:Y 0.00168042
3 *46:22 *426:A 0
4 *47:24 *426:A 9.54399e-05
*RES
1 *405:Y *426:A 26.655 
*END

*D_NET *51 0.00168137
*CONN
*I *392:A1 I *D sky130_fd_sc_hd__mux2_1
*I *419:X O *D sky130_fd_sc_hd__clkbuf_1
*CAP
1 *392:A1 0.00035331
2 *419:X 0.00035331
3 *392:A1 *399:C_N 0.000139238
4 *393:C *392:A1 7.23602e-05
5 *397:A *392:A1 1.83847e-05
6 *400:A1 *392:A1 0
7 *400:A2 *392:A1 0.000143464
8 *400:A3 *392:A1 7.4027e-05
9 *400:A4 *392:A1 1.52945e-05
10 *45:24 *392:A1 7.89767e-05
11 *45:26 *392:A1 0.000312815
12 *46:32 *392:A1 0.000120186
13 *46:40 *392:A1 0
*RES
1 *419:X *392:A1 17.19 
*END

*D_NET *52 0.000993876
*CONN
*I *399:C_N I *D sky130_fd_sc_hd__or3b_1
*I *420:X O *D sky130_fd_sc_hd__clkbuf_1
*CAP
1 *399:C_N 0.000201747
2 *420:X 0.000201747
3 *399:C_N *396:A0 1.34361e-05
4 *399:C_N *396:A1 0.000120186
5 *399:C_N *398:C 0
6 *392:A1 *399:C_N 0.000139238
7 *396:S *399:C_N 9.9535e-05
8 *397:A *399:C_N 0.000208484
9 *397:B *399:C_N 0
10 *45:26 *399:C_N 9.50342e-06
*RES
1 *420:X *399:C_N 12.915 
*END

*D_NET *53 0.0011015
*CONN
*I *396:A0 I *D sky130_fd_sc_hd__mux2_1
*I *421:X O *D sky130_fd_sc_hd__clkbuf_1
*CAP
1 *396:A0 0.000304849
2 *421:X 0.000304849
3 *396:A0 *396:A1 0.000478364
4 *396:A0 *398:C 0
5 *399:C_N *396:A0 1.34361e-05
*RES
1 *421:X *396:A0 13.71 
*END

*D_NET *54 0.00233144
*CONN
*I *398:C I *D sky130_fd_sc_hd__nand3b_1
*I *422:X O *D sky130_fd_sc_hd__clkbuf_1
*CAP
1 *398:C 0.00111709
2 *422:X 0.00111709
3 *398:C *396:A1 8.77498e-05
4 *396:A0 *398:C 0
5 *398:B *398:C 9.50342e-06
6 *399:C_N *398:C 0
7 *400:A2 *398:C 0
*RES
1 *422:X *398:C 24.99 
*END

*D_NET *55 0.00168242
*CONN
*I *396:A1 I *D sky130_fd_sc_hd__mux2_1
*I *423:X O *D sky130_fd_sc_hd__clkbuf_1
*CAP
1 *396:A1 0.000498059
2 *423:X 0.000498059
3 *396:A0 *396:A1 0.000478364
4 *398:C *396:A1 8.77498e-05
5 *399:C_N *396:A1 0.000120186
6 *420:A *396:A1 0
7 *421:A *396:A1 0
*RES
1 *423:X *396:A1 17.535 
*END

*D_NET *56 0.00288685
*CONN
*I *401:A0 I *D sky130_fd_sc_hd__mux4_1
*I *424:X O *D sky130_fd_sc_hd__clkbuf_1
*CAP
1 *401:A0 0.000890987
2 *424:X 0.000890987
3 *401:A0 *402:A1 0.000439543
4 *401:A1 *401:A0 0
5 *402:A0 *401:A0 0.000265598
6 *402:A3 *401:A0 0.000276931
7 *406:A *401:A0 0
8 *424:A *401:A0 0.000122801
9 *45:12 *401:A0 0
*RES
1 *424:X *401:A0 26.175 
*END

*D_NET *57 0.00212222
*CONN
*I *402:A1 I *D sky130_fd_sc_hd__mux4_1
*I *425:X O *D sky130_fd_sc_hd__clkbuf_1
*CAP
1 *402:A1 0.000325379
2 *425:X 0.000325379
3 *401:A0 *402:A1 0.000439543
4 *401:A1 *402:A1 0.000187766
5 *402:A0 *402:A1 0.000832491
6 *402:A3 *402:A1 1.16578e-05
*RES
1 *425:X *402:A1 22.645 
*END
