*SPEF "ieee 1481-1999"
*DESIGN "mux16x1_project"
*DATE "11:11:11 Fri 11 11, 1111"
*VENDOR "OpenRCX"
*PROGRAM "Parallel Extraction"
*VERSION "1.0"
*DESIGN_FLOW "NAME_SCOPE LOCAL" "PIN_CAP NONE"
*DIVIDER /
*DELIMITER :
*BUS_DELIMITER []
*T_UNIT 1 NS
*C_UNIT 1 PF
*R_UNIT 1 OHM
*L_UNIT 1 HENRY

*NAME_MAP
*1 data_in[0]
*2 data_in[10]
*3 data_in[11]
*4 data_in[12]
*5 data_in[13]
*6 data_in[14]
*7 data_in[15]
*8 data_in[1]
*9 data_in[2]
*10 data_in[3]
*11 data_in[4]
*12 data_in[5]
*13 data_in[6]
*14 data_in[7]
*15 data_in[8]
*16 data_in[9]
*17 select[0]
*18 select[1]
*19 select[2]
*20 select[3]
*23 y
*24 _00_
*25 _01_
*26 _02_
*27 _03_
*28 _04_
*29 _05_
*30 _06_
*31 _07_
*32 _08_
*33 _09_
*34 _10_
*35 _11_
*36 _12_
*37 net1
*38 net10
*39 net11
*40 net12
*41 net13
*42 net14
*43 net15
*44 net16
*45 net17
*46 net18
*47 net19
*48 net2
*49 net20
*50 net21
*51 net3
*52 net4
*53 net5
*54 net6
*55 net7
*56 net8
*57 net9
*58 FILLER_0_0_21
*59 FILLER_0_0_27
*60 FILLER_0_0_29
*61 FILLER_0_0_41
*62 FILLER_0_0_53
*63 FILLER_0_0_57
*64 FILLER_0_0_69
*65 FILLER_0_0_9
*66 FILLER_0_10_10
*67 FILLER_0_10_22
*68 FILLER_0_10_29
*69 FILLER_0_10_41
*70 FILLER_0_10_53
*71 FILLER_0_10_65
*72 FILLER_0_10_77
*73 FILLER_0_11_20
*74 FILLER_0_11_32
*75 FILLER_0_11_44
*76 FILLER_0_11_57
*77 FILLER_0_11_69
*78 FILLER_0_12_18
*79 FILLER_0_12_26
*80 FILLER_0_12_29
*81 FILLER_0_12_41
*82 FILLER_0_12_53
*83 FILLER_0_12_6
*84 FILLER_0_12_65
*85 FILLER_0_12_77
*86 FILLER_0_13_21
*87 FILLER_0_13_33
*88 FILLER_0_13_45
*89 FILLER_0_13_53
*90 FILLER_0_13_57
*91 FILLER_0_13_69
*92 FILLER_0_13_9
*93 FILLER_0_14_15
*94 FILLER_0_14_27
*95 FILLER_0_14_29
*96 FILLER_0_14_3
*97 FILLER_0_14_41
*98 FILLER_0_14_53
*99 FILLER_0_14_65
*100 FILLER_0_14_77
*101 FILLER_0_15_18
*102 FILLER_0_15_30
*103 FILLER_0_15_42
*104 FILLER_0_15_54
*105 FILLER_0_15_57
*106 FILLER_0_15_6
*107 FILLER_0_15_69
*108 FILLER_0_16_15
*109 FILLER_0_16_27
*110 FILLER_0_16_29
*111 FILLER_0_16_3
*112 FILLER_0_16_41
*113 FILLER_0_16_53
*114 FILLER_0_17_21
*115 FILLER_0_17_33
*116 FILLER_0_17_45
*117 FILLER_0_17_53
*118 FILLER_0_17_57
*119 FILLER_0_17_6
*120 FILLER_0_17_69
*121 FILLER_0_18_11
*122 FILLER_0_18_16
*123 FILLER_0_18_29
*124 FILLER_0_18_3
*125 FILLER_0_18_41
*126 FILLER_0_18_53
*127 FILLER_0_18_65
*128 FILLER_0_18_77
*129 FILLER_0_19_15
*130 FILLER_0_19_27
*131 FILLER_0_19_3
*132 FILLER_0_19_39
*133 FILLER_0_19_51
*134 FILLER_0_19_55
*135 FILLER_0_19_57
*136 FILLER_0_19_69
*137 FILLER_0_1_15
*138 FILLER_0_1_27
*139 FILLER_0_1_3
*140 FILLER_0_1_39
*141 FILLER_0_1_51
*142 FILLER_0_1_55
*143 FILLER_0_1_57
*144 FILLER_0_1_69
*145 FILLER_0_20_18
*146 FILLER_0_20_26
*147 FILLER_0_20_29
*148 FILLER_0_20_41
*149 FILLER_0_20_53
*150 FILLER_0_20_6
*151 FILLER_0_20_65
*152 FILLER_0_20_77
*153 FILLER_0_21_15
*154 FILLER_0_21_27
*155 FILLER_0_21_3
*156 FILLER_0_21_39
*157 FILLER_0_21_51
*158 FILLER_0_21_55
*159 FILLER_0_21_57
*160 FILLER_0_21_69
*161 FILLER_0_22_12
*162 FILLER_0_22_22
*163 FILLER_0_22_29
*164 FILLER_0_22_41
*165 FILLER_0_22_53
*166 FILLER_0_22_6
*167 FILLER_0_22_65
*168 FILLER_0_22_77
*169 FILLER_0_23_24
*170 FILLER_0_23_36
*171 FILLER_0_23_48
*172 FILLER_0_23_57
*173 FILLER_0_23_69
*174 FILLER_0_24_18
*175 FILLER_0_24_26
*176 FILLER_0_24_29
*177 FILLER_0_24_41
*178 FILLER_0_24_53
*179 FILLER_0_24_6
*180 FILLER_0_24_65
*181 FILLER_0_24_77
*182 FILLER_0_25_24
*183 FILLER_0_25_36
*184 FILLER_0_25_48
*185 FILLER_0_25_57
*186 FILLER_0_25_69
*187 FILLER_0_26_15
*188 FILLER_0_26_27
*189 FILLER_0_26_29
*190 FILLER_0_26_3
*191 FILLER_0_26_41
*192 FILLER_0_26_53
*193 FILLER_0_26_65
*194 FILLER_0_26_77
*195 FILLER_0_27_18
*196 FILLER_0_27_30
*197 FILLER_0_27_42
*198 FILLER_0_27_54
*199 FILLER_0_27_57
*200 FILLER_0_27_6
*201 FILLER_0_27_69
*202 FILLER_0_28_15
*203 FILLER_0_28_27
*204 FILLER_0_28_29
*205 FILLER_0_28_3
*206 FILLER_0_28_41
*207 FILLER_0_28_53
*208 FILLER_0_28_65
*209 FILLER_0_28_77
*210 FILLER_0_29_15
*211 FILLER_0_29_27
*212 FILLER_0_29_3
*213 FILLER_0_29_39
*214 FILLER_0_29_51
*215 FILLER_0_29_55
*216 FILLER_0_29_57
*217 FILLER_0_29_69
*218 FILLER_0_2_18
*219 FILLER_0_2_26
*220 FILLER_0_2_29
*221 FILLER_0_2_41
*222 FILLER_0_2_53
*223 FILLER_0_2_6
*224 FILLER_0_2_65
*225 FILLER_0_2_77
*226 FILLER_0_30_18
*227 FILLER_0_30_26
*228 FILLER_0_30_29
*229 FILLER_0_30_41
*230 FILLER_0_30_53
*231 FILLER_0_30_6
*232 FILLER_0_30_65
*233 FILLER_0_30_77
*234 FILLER_0_31_13
*235 FILLER_0_31_25
*236 FILLER_0_31_33
*237 FILLER_0_31_45
*238 FILLER_0_31_53
*239 FILLER_0_31_61
*240 FILLER_0_31_73
*241 FILLER_0_31_77
*242 FILLER_0_3_15
*243 FILLER_0_3_27
*244 FILLER_0_3_3
*245 FILLER_0_3_39
*246 FILLER_0_3_51
*247 FILLER_0_3_55
*248 FILLER_0_3_57
*249 FILLER_0_3_69
*250 FILLER_0_4_18
*251 FILLER_0_4_26
*252 FILLER_0_4_29
*253 FILLER_0_4_41
*254 FILLER_0_4_53
*255 FILLER_0_4_6
*256 FILLER_0_4_65
*257 FILLER_0_4_77
*258 FILLER_0_5_12
*259 FILLER_0_5_24
*260 FILLER_0_5_36
*261 FILLER_0_5_48
*262 FILLER_0_5_57
*263 FILLER_0_5_69
*264 FILLER_0_6_10
*265 FILLER_0_6_22
*266 FILLER_0_6_29
*267 FILLER_0_6_41
*268 FILLER_0_6_53
*269 FILLER_0_6_6
*270 FILLER_0_6_65
*271 FILLER_0_6_77
*272 FILLER_0_7_18
*273 FILLER_0_7_3
*274 FILLER_0_7_30
*275 FILLER_0_7_42
*276 FILLER_0_7_54
*277 FILLER_0_7_57
*278 FILLER_0_7_69
*279 FILLER_0_8_14
*280 FILLER_0_8_26
*281 FILLER_0_8_29
*282 FILLER_0_8_3
*283 FILLER_0_8_41
*284 FILLER_0_8_53
*285 FILLER_0_8_65
*286 FILLER_0_8_77
*287 FILLER_0_9_18
*288 FILLER_0_9_30
*289 FILLER_0_9_42
*290 FILLER_0_9_54
*291 FILLER_0_9_57
*292 FILLER_0_9_6
*293 FILLER_0_9_69
*294 PHY_0
*295 PHY_1
*296 PHY_10
*297 PHY_11
*298 PHY_12
*299 PHY_13
*300 PHY_14
*301 PHY_15
*302 PHY_16
*303 PHY_17
*304 PHY_18
*305 PHY_19
*306 PHY_2
*307 PHY_20
*308 PHY_21
*309 PHY_22
*310 PHY_23
*311 PHY_24
*312 PHY_25
*313 PHY_26
*314 PHY_27
*315 PHY_28
*316 PHY_29
*317 PHY_3
*318 PHY_30
*319 PHY_31
*320 PHY_32
*321 PHY_33
*322 PHY_34
*323 PHY_35
*324 PHY_36
*325 PHY_37
*326 PHY_38
*327 PHY_39
*328 PHY_4
*329 PHY_40
*330 PHY_41
*331 PHY_42
*332 PHY_43
*333 PHY_44
*334 PHY_45
*335 PHY_46
*336 PHY_47
*337 PHY_48
*338 PHY_49
*339 PHY_5
*340 PHY_50
*341 PHY_51
*342 PHY_52
*343 PHY_53
*344 PHY_54
*345 PHY_55
*346 PHY_56
*347 PHY_57
*348 PHY_58
*349 PHY_59
*350 PHY_6
*351 PHY_60
*352 PHY_61
*353 PHY_62
*354 PHY_63
*355 PHY_7
*356 PHY_8
*357 PHY_9
*358 TAP_64
*359 TAP_65
*360 TAP_66
*361 TAP_67
*362 TAP_68
*363 TAP_69
*364 TAP_70
*365 TAP_71
*366 TAP_72
*367 TAP_73
*368 TAP_74
*369 TAP_75
*370 TAP_76
*371 TAP_77
*372 TAP_78
*373 TAP_79
*374 TAP_80
*375 TAP_81
*376 TAP_82
*377 TAP_83
*378 TAP_84
*379 TAP_85
*380 TAP_86
*381 TAP_87
*382 TAP_88
*383 TAP_89
*384 TAP_90
*385 TAP_91
*386 TAP_92
*387 TAP_93
*388 TAP_94
*389 TAP_95
*390 TAP_96
*391 TAP_97
*392 _13_
*393 _14_
*394 _15_
*395 _16_
*396 _17_
*397 _18_
*398 _19_
*399 _20_
*400 _21_
*401 _22_
*402 _23_
*403 _24_
*404 _25_
*405 _26_
*406 input1
*407 input10
*408 input11
*409 input12
*410 input13
*411 input14
*412 input15
*413 input16
*414 input17
*415 input18
*416 input19
*417 input2
*418 input20
*419 input3
*420 input4
*421 input5
*422 input6
*423 input7
*424 input8
*425 input9
*426 output21

*PORTS
data_in[0] I
data_in[10] I
data_in[11] I
data_in[12] I
data_in[13] I
data_in[14] I
data_in[15] I
data_in[1] I
data_in[2] I
data_in[3] I
data_in[4] I
data_in[5] I
data_in[6] I
data_in[7] I
data_in[8] I
data_in[9] I
select[0] I
select[1] I
select[2] I
select[3] I
y O

*D_NET *1 0.00179182
*CONN
*P data_in[0] I
*I *406:A I *D sky130_fd_sc_hd__clkbuf_1
*CAP
1 data_in[0] 0.000623939
2 *406:A 0.000623939
3 *406:A *414:A 5.71472e-05
4 *406:A *424:A 0.000345664
5 *406:A *425:A 0
6 *406:A *45:12 0.000141131
7 *406:A *56:16 0
*RES
1 data_in[0] *406:A 29.3524 
*END

*D_NET *2 0.000487379
*CONN
*P data_in[10] I
*I *417:A I *D sky130_fd_sc_hd__clkbuf_1
*CAP
1 data_in[10] 0.00024369
2 *417:A 0.00024369
3 *417:A *413:A 0
4 *417:A *419:A 0
*RES
1 data_in[10] *417:A 19.9411 
*END

*D_NET *3 0.00064977
*CONN
*P data_in[11] I
*I *419:A I *D sky130_fd_sc_hd__clkbuf_1
*CAP
1 data_in[11] 0.000324885
2 *419:A 0.000324885
3 *419:A *396:S 0
4 *419:A *420:A 0
5 *417:A *419:A 0
*RES
1 data_in[11] *419:A 21.4589 
*END

*D_NET *4 0.000511059
*CONN
*P data_in[12] I
*I *420:A I *D sky130_fd_sc_hd__clkbuf_1
*CAP
1 data_in[12] 0.000255529
2 *420:A 0.000255529
3 *420:A *396:A1 0
4 *420:A *421:A 0
5 *419:A *420:A 0
*RES
1 data_in[12] *420:A 20.2447 
*END

*D_NET *5 0.00054078
*CONN
*P data_in[13] I
*I *421:A I *D sky130_fd_sc_hd__clkbuf_1
*CAP
1 data_in[13] 0.00027039
2 *421:A 0.00027039
3 *421:A *396:A1 0
4 *421:A *422:A 0
5 *420:A *421:A 0
*RES
1 data_in[13] *421:A 20.5482 
*END

*D_NET *6 0.000659607
*CONN
*P data_in[14] I
*I *422:A I *D sky130_fd_sc_hd__clkbuf_1
*CAP
1 data_in[14] 0.000329803
2 *422:A 0.000329803
3 *422:A *423:A 0
4 *421:A *422:A 0
*RES
1 data_in[14] *422:A 21.7625 
*END

*D_NET *7 0.0013743
*CONN
*P data_in[15] I
*I *423:A I *D sky130_fd_sc_hd__clkbuf_1
*CAP
1 data_in[15] 0.000687149
2 *423:A 0.000687149
3 *422:A *423:A 0
*RES
1 data_in[15] *423:A 25.8253 
*END

*D_NET *8 0.00158042
*CONN
*P data_in[1] I
*I *424:A I *D sky130_fd_sc_hd__clkbuf_1
*CAP
1 data_in[1] 0.00047454
2 *424:A 0.00047454
3 *424:A *414:A 7.2955e-05
4 *424:A *425:A 0
5 *424:A *45:12 7.09928e-05
6 *424:A *56:16 0.000141734
7 *406:A *424:A 0.000345664
*RES
1 data_in[1] *424:A 24.5495 
*END

*D_NET *9 0.000659607
*CONN
*P data_in[2] I
*I *425:A I *D sky130_fd_sc_hd__clkbuf_1
*CAP
1 data_in[2] 0.000329803
2 *425:A 0.000329803
3 *425:A *402:A0 0
4 *425:A *407:A 0
5 *406:A *425:A 0
6 *424:A *425:A 0
*RES
1 data_in[2] *425:A 21.7625 
*END

*D_NET *10 0.000576803
*CONN
*P data_in[3] I
*I *407:A I *D sky130_fd_sc_hd__clkbuf_1
*CAP
1 data_in[3] 0.000286556
2 *407:A 0.000286556
3 *407:A *401:A1 3.69047e-06
4 *407:A *402:A0 0
5 *407:A *408:A 0
6 *425:A *407:A 0
*RES
1 data_in[3] *407:A 20.8518 
*END

*D_NET *11 0.000521879
*CONN
*P data_in[4] I
*I *408:A I *D sky130_fd_sc_hd__clkbuf_1
*CAP
1 data_in[4] 0.000260939
2 *408:A 0.000260939
3 *408:A *401:A1 0
4 *408:A *409:A 0
5 *407:A *408:A 0
*RES
1 data_in[4] *408:A 20.2447 
*END

*D_NET *12 0.000531716
*CONN
*P data_in[5] I
*I *409:A I *D sky130_fd_sc_hd__clkbuf_1
*CAP
1 data_in[5] 0.000265858
2 *409:A 0.000265858
3 *409:A *402:A3 0
4 *409:A *410:A 0
5 *408:A *409:A 0
*RES
1 data_in[5] *409:A 20.5482 
*END

*D_NET *13 0.000659607
*CONN
*P data_in[6] I
*I *410:A I *D sky130_fd_sc_hd__clkbuf_1
*CAP
1 data_in[6] 0.000329803
2 *410:A 0.000329803
3 *410:A *411:A 0
4 *410:A *45:18 0
5 *409:A *410:A 0
*RES
1 data_in[6] *410:A 21.7625 
*END

*D_NET *14 0.000570487
*CONN
*P data_in[7] I
*I *411:A I *D sky130_fd_sc_hd__clkbuf_1
*CAP
1 data_in[7] 0.000285243
2 *411:A 0.000285243
3 *411:A *412:A 0
4 *411:A *45:18 0
5 *410:A *411:A 0
*RES
1 data_in[7] *411:A 20.8518 
*END

*D_NET *15 0.000689314
*CONN
*P data_in[8] I
*I *412:A I *D sky130_fd_sc_hd__clkbuf_1
*CAP
1 data_in[8] 0.000344657
2 *412:A 0.000344657
3 *412:A *394:C_N 0
4 *412:A *413:A 0
5 *412:A *45:18 0
6 *411:A *412:A 0
*RES
1 data_in[8] *412:A 22.0661 
*END

*D_NET *16 0.000549844
*CONN
*P data_in[9] I
*I *413:A I *D sky130_fd_sc_hd__clkbuf_1
*CAP
1 data_in[9] 0.000274922
2 *413:A 0.000274922
3 *413:A *45:24 0
4 *412:A *413:A 0
5 *417:A *413:A 0
*RES
1 data_in[9] *413:A 20.5482 
*END

*D_NET *17 0.00110111
*CONN
*P select[0] I
*I *414:A I *D sky130_fd_sc_hd__clkbuf_2
*CAP
1 select[0] 0.000485505
2 *414:A 0.000485505
3 *406:A *414:A 5.71472e-05
4 *424:A *414:A 7.2955e-05
*RES
1 select[0] *414:A 23.6929 
*END

*D_NET *18 0.000986411
*CONN
*P select[1] I
*I *415:A I *D sky130_fd_sc_hd__buf_2
*CAP
1 select[1] 0.000479
2 *415:A 0.000479
3 *415:A *46:10 2.84109e-05
*RES
1 select[1] *415:A 23.05 
*END

*D_NET *19 0.00110431
*CONN
*P select[2] I
*I *416:A I *D sky130_fd_sc_hd__clkbuf_2
*CAP
1 select[2] 0.000552153
2 *416:A 0.000552153
*RES
1 select[2] *416:A 23.9786 
*END

*D_NET *20 0.00102261
*CONN
*P select[3] I
*I *418:A I *D sky130_fd_sc_hd__buf_1
*CAP
1 select[3] 0.000511303
2 *418:A 0.000511303
*RES
1 select[3] *418:A 23.7107 
*END

*D_NET *23 0.00107847
*CONN
*P y O
*I *426:X O *D sky130_fd_sc_hd__buf_12
*CAP
1 y 0.000539235
2 *426:X 0.000539235
*RES
1 *426:X y 20.164 
*END

*D_NET *24 0.000170778
*CONN
*I *395:A2 I *D sky130_fd_sc_hd__a2111oi_1
*I *392:X O *D sky130_fd_sc_hd__mux2_1
*CAP
1 *395:A2 8.53888e-05
2 *392:X 8.53888e-05
*RES
1 *392:X *395:A2 19.5464 
*END

*D_NET *25 0.000769614
*CONN
*I *395:B1 I *D sky130_fd_sc_hd__a2111oi_1
*I *393:X O *D sky130_fd_sc_hd__and3b_1
*CAP
1 *395:B1 0.000234005
2 *393:X 0.000234005
3 *395:B1 *400:A1 3.6337e-05
4 *395:B1 *400:B1 3.92854e-05
5 *395:B1 *46:40 0.000225982
*RES
1 *393:X *395:B1 31.225 
*END

*D_NET *26 0.00139605
*CONN
*I *395:C1 I *D sky130_fd_sc_hd__a2111oi_1
*I *394:Y O *D sky130_fd_sc_hd__nor3b_1
*CAP
1 *395:C1 0.000395991
2 *394:Y 0.000395991
3 *395:C1 *395:A1 0.000170972
4 *395:C1 *395:D1 1.04232e-05
5 *395:C1 *400:B1 1.02504e-05
6 *395:C1 *32:16 0.000139767
7 *395:C1 *47:24 0.000272658
*RES
1 *394:Y *395:C1 35.2071 
*END

*D_NET *27 0.0018393
*CONN
*I *400:B1 I *D sky130_fd_sc_hd__a41o_1
*I *395:Y O *D sky130_fd_sc_hd__a2111oi_1
*CAP
1 *400:B1 0.000296527
2 *395:Y 0.000296527
3 *400:B1 *400:A1 0.000123689
4 *400:B1 *32:16 0.000735423
5 *400:B1 *46:40 0.000167665
6 *400:B1 *46:57 0.000141729
7 *400:B1 *47:24 2.82057e-05
8 *395:B1 *400:B1 3.92854e-05
9 *395:C1 *400:B1 1.02504e-05
*RES
1 *395:Y *400:B1 38.5107 
*END

*D_NET *28 0.000386044
*CONN
*I *397:B I *D sky130_fd_sc_hd__nand2_1
*I *396:X O *D sky130_fd_sc_hd__mux2_1
*CAP
1 *397:B 0.000193022
2 *396:X 0.000193022
3 *397:B *399:C_N 0
*RES
1 *396:X *397:B 30.1893 
*END

*D_NET *29 0.000853146
*CONN
*I *400:A2 I *D sky130_fd_sc_hd__a41o_1
*I *397:Y O *D sky130_fd_sc_hd__nand2_1
*CAP
1 *400:A2 0.000258386
2 *397:Y 0.000258386
3 *400:A2 *392:A1 0.000153573
4 *400:A2 *397:A 5.30637e-06
5 *400:A2 *398:C 0
6 *400:A2 *400:A3 7.83659e-05
7 *400:A2 *400:A4 9.9129e-05
*RES
1 *397:Y *400:A2 32.2607 
*END

*D_NET *30 0.000707247
*CONN
*I *400:A3 I *D sky130_fd_sc_hd__a41o_1
*I *398:Y O *D sky130_fd_sc_hd__nand3b_1
*CAP
1 *400:A3 0.000194395
2 *398:Y 0.000194395
3 *400:A3 *392:A1 8.00806e-05
4 *400:A3 *398:A_N 6.44138e-06
5 *400:A3 *400:A4 9.83442e-05
6 *400:A3 *45:45 5.52238e-05
7 *400:A2 *400:A3 7.83659e-05
*RES
1 *398:Y *400:A3 30.8143 
*END

*D_NET *31 0.000871776
*CONN
*I *400:A4 I *D sky130_fd_sc_hd__a41o_1
*I *399:X O *D sky130_fd_sc_hd__or3b_1
*CAP
1 *400:A4 0.000232912
2 *399:X 0.000232912
3 *400:A4 *392:A1 1.46624e-05
4 *400:A4 *398:A_N 3.35608e-05
5 *400:A4 *45:45 1.97457e-05
6 *400:A4 *46:57 0.00014051
7 *400:A2 *400:A4 9.9129e-05
8 *400:A3 *400:A4 9.83442e-05
*RES
1 *399:X *400:A4 32.8857 
*END

*D_NET *32 0.00360518
*CONN
*I *405:A2 I *D sky130_fd_sc_hd__a21oi_2
*I *400:X O *D sky130_fd_sc_hd__a41o_1
*CAP
1 *405:A2 0
2 *400:X 0.00117017
3 *32:16 0.00117017
4 *32:16 *46:57 5.49489e-05
5 *32:16 *47:24 0.000334702
6 *395:C1 *32:16 0.000139767
7 *400:B1 *32:16 0.000735423
*RES
1 *400:X *32:16 44.1393 
2 *32:16 *405:A2 9.3 
*END

*D_NET *33 0.00065098
*CONN
*I *403:A1 I *D sky130_fd_sc_hd__mux2_1
*I *401:X O *D sky130_fd_sc_hd__mux4_1
*CAP
1 *403:A1 0.000306015
2 *401:X 0.000306015
3 *403:A1 *403:S 3.895e-05
*RES
1 *401:X *403:A1 31.5464 
*END

*D_NET *34 0.00152022
*CONN
*I *403:A0 I *D sky130_fd_sc_hd__mux2_1
*I *402:X O *D sky130_fd_sc_hd__mux4_1
*CAP
1 *403:A0 0.000514389
2 *402:X 0.000514389
3 *403:A0 *403:S 5.52238e-05
4 *403:A0 *47:14 0.000123068
5 *403:A0 *47:18 0.000176096
6 *403:A0 *47:24 0.000137054
*RES
1 *402:X *403:A0 37.4214 
*END

*D_NET *35 0.00104998
*CONN
*I *404:B I *D sky130_fd_sc_hd__nor2_1
*I *403:X O *D sky130_fd_sc_hd__mux2_1
*CAP
1 *404:B 0.000407061
2 *403:X 0.000407061
3 *404:B *401:A3 0
4 *404:B *47:24 0.00023586
*RES
1 *403:X *404:B 36.8321 
*END

*D_NET *36 0.00023025
*CONN
*I *405:B1 I *D sky130_fd_sc_hd__a21oi_2
*I *404:Y O *D sky130_fd_sc_hd__nor2_1
*CAP
1 *405:B1 9.43291e-05
2 *404:Y 9.43291e-05
3 *405:B1 *401:A3 0
4 *405:B1 *405:A1 0
5 *405:B1 *47:24 4.15914e-05
*RES
1 *404:Y *405:B1 29.3679 
*END

*D_NET *37 0.00245979
*CONN
*I *402:A0 I *D sky130_fd_sc_hd__mux4_1
*I *406:X O *D sky130_fd_sc_hd__clkbuf_1
*CAP
1 *402:A0 0.000590843
2 *406:X 0.000590843
3 *402:A0 *401:A1 7.2277e-05
4 *402:A0 *45:12 2.59355e-05
5 *402:A0 *56:16 0.000281748
6 *402:A0 *57:24 0.000898143
7 *407:A *402:A0 0
8 *425:A *402:A0 0
*RES
1 *406:X *402:A0 43.6536 
*END

*D_NET *38 0.00154292
*CONN
*I *401:A1 I *D sky130_fd_sc_hd__mux4_1
*I *407:X O *D sky130_fd_sc_hd__clkbuf_1
*CAP
1 *401:A1 0.000458737
2 *407:X 0.000458737
3 *401:A1 *402:A3 0.000346639
4 *401:A1 *56:16 0
5 *401:A1 *57:24 0.000202842
6 *402:A0 *401:A1 7.2277e-05
7 *407:A *401:A1 3.69047e-06
8 *408:A *401:A1 0
*RES
1 *407:X *401:A1 37.475 
*END

*D_NET *39 0.00106834
*CONN
*I *402:A2 I *D sky130_fd_sc_hd__mux4_1
*I *408:X O *D sky130_fd_sc_hd__clkbuf_1
*CAP
1 *402:A2 0.000405519
2 *408:X 0.000405519
3 *402:A2 *402:S0 1.14548e-05
4 *402:A2 *45:12 0.000121842
5 *402:A2 *46:10 4.73656e-05
6 *402:A2 *46:16 7.6644e-05
*RES
1 *408:X *402:A2 33.3009 
*END

*D_NET *40 0.00116608
*CONN
*I *401:A2 I *D sky130_fd_sc_hd__mux4_1
*I *409:X O *D sky130_fd_sc_hd__clkbuf_1
*CAP
1 *401:A2 0.000365356
2 *409:X 0.000365356
3 *401:A2 *403:S 2.89114e-05
4 *401:A2 *45:12 0.000121842
5 *401:A2 *45:18 0.000184036
6 *401:A2 *46:16 6.80706e-05
7 *401:A2 *47:24 3.25078e-05
*RES
1 *409:X *401:A2 33.3009 
*END

*D_NET *41 0.00245399
*CONN
*I *402:A3 I *D sky130_fd_sc_hd__mux4_1
*I *410:X O *D sky130_fd_sc_hd__clkbuf_1
*CAP
1 *402:A3 0.000646603
2 *410:X 0.000646603
3 *402:A3 *401:A3 2.00751e-05
4 *402:A3 *402:S0 7.36693e-05
5 *402:A3 *45:12 0
6 *402:A3 *45:18 0.000347347
7 *402:A3 *46:22 6.39901e-05
8 *402:A3 *56:16 0.000295732
9 *402:A3 *57:24 1.33343e-05
10 *401:A1 *402:A3 0.000346639
11 *409:A *402:A3 0
*RES
1 *410:X *402:A3 43.4393 
*END

*D_NET *42 0.00267625
*CONN
*I *401:A3 I *D sky130_fd_sc_hd__mux4_1
*I *411:X O *D sky130_fd_sc_hd__clkbuf_1
*CAP
1 *401:A3 0.00073277
2 *411:X 0.00073277
3 *401:A3 *45:12 0
4 *401:A3 *46:16 7.36693e-05
5 *401:A3 *46:22 0.00111696
6 *401:A3 *47:24 0
7 *402:A3 *401:A3 2.00751e-05
8 *404:B *401:A3 0
9 *405:B1 *401:A3 0
*RES
1 *411:X *401:A3 44.9214 
*END

*D_NET *43 0.000771483
*CONN
*I *394:C_N I *D sky130_fd_sc_hd__nor3b_1
*I *412:X O *D sky130_fd_sc_hd__clkbuf_1
*CAP
1 *394:C_N 0.000212072
2 *412:X 0.000212072
3 *394:C_N *45:18 0.000312195
4 *394:C_N *45:24 3.51442e-05
5 *412:A *394:C_N 0
*RES
1 *412:X *394:C_N 32.5107 
*END

*D_NET *44 0.000430861
*CONN
*I *392:A0 I *D sky130_fd_sc_hd__mux2_1
*I *413:X O *D sky130_fd_sc_hd__clkbuf_1
*CAP
1 *392:A0 0.000108596
2 *413:X 0.000108596
3 *392:A0 *392:S 5.52238e-05
4 *392:A0 *45:24 8.00806e-05
5 *392:A0 *46:24 7.83659e-05
*RES
1 *413:X *392:A0 29.5821 
*END

*D_NET *45 0.0136151
*CONN
*I *403:S I *D sky130_fd_sc_hd__mux2_1
*I *394:A I *D sky130_fd_sc_hd__nor3b_1
*I *395:A1 I *D sky130_fd_sc_hd__a2111oi_1
*I *393:A_N I *D sky130_fd_sc_hd__and3b_1
*I *399:A I *D sky130_fd_sc_hd__or3b_1
*I *398:A_N I *D sky130_fd_sc_hd__nand3b_1
*I *397:A I *D sky130_fd_sc_hd__nand2_1
*I *414:X O *D sky130_fd_sc_hd__clkbuf_2
*CAP
1 *403:S 0.000168519
2 *394:A 0
3 *395:A1 0.000409692
4 *393:A_N 4.00453e-05
5 *399:A 0
6 *398:A_N 0.000377888
7 *397:A 0.000146015
8 *414:X 0.00107983
9 *45:76 0.000409692
10 *45:45 0.000532833
11 *45:26 0.000592936
12 *45:24 0.000658081
13 *45:18 0.00113618
14 *45:12 0.00205847
15 *395:A1 *395:D1 1.04232e-05
16 *395:A1 *46:24 0
17 *395:A1 *47:24 0.000314209
18 *397:A *392:A1 1.92905e-05
19 *397:A *396:S 0.000151333
20 *397:A *399:C_N 0.000225307
21 *397:A *46:57 8.32242e-05
22 *45:12 *46:10 0.000587033
23 *45:12 *46:16 0.000130307
24 *45:12 *47:24 1.42165e-05
25 *45:12 *56:16 0
26 *45:18 *46:22 0.00173969
27 *45:18 *46:24 1.02504e-05
28 *45:24 *392:A1 8.16036e-05
29 *45:24 *46:24 0.000263111
30 *45:24 *46:32 2.37817e-05
31 *45:26 *392:A1 0.000324178
32 *45:26 *399:C_N 1.02504e-05
33 *45:26 *46:57 0.000142797
34 *45:45 *399:B 1.90303e-05
35 *392:A0 *45:24 8.00806e-05
36 *394:C_N *45:18 0.000312195
37 *394:C_N *45:24 3.51442e-05
38 *395:C1 *395:A1 0.000170972
39 *400:A2 *397:A 5.30637e-06
40 *400:A3 *398:A_N 6.44138e-06
41 *400:A3 *45:45 5.52238e-05
42 *400:A4 *398:A_N 3.35608e-05
43 *400:A4 *45:45 1.97457e-05
44 *401:A2 *403:S 2.89114e-05
45 *401:A2 *45:12 0.000121842
46 *401:A2 *45:18 0.000184036
47 *401:A3 *45:12 0
48 *402:A0 *45:12 2.59355e-05
49 *402:A2 *45:12 0.000121842
50 *402:A3 *45:12 0
51 *402:A3 *45:18 0.000347347
52 *403:A0 *403:S 5.52238e-05
53 *403:A1 *403:S 3.895e-05
54 *406:A *45:12 0.000141131
55 *410:A *45:18 0
56 *411:A *45:18 0
57 *412:A *45:18 0
58 *413:A *45:24 0
59 *424:A *45:12 7.09928e-05
*RES
1 *414:X *45:12 42.9786 
2 *45:12 *45:18 29.8929 
3 *45:18 *45:24 7.76786 
4 *45:24 *45:26 7.71429 
5 *45:26 *397:A 18.0143 
6 *45:26 *45:45 7.42857 
7 *45:45 *398:A_N 14.7286 
8 *45:45 *399:A 9.3 
9 *45:24 *393:A_N 14.3357 
10 *45:18 *45:76 4.5 
11 *45:76 *395:A1 27.3536 
12 *45:76 *394:A 9.3 
13 *45:12 *403:S 12.8714 
*END

*D_NET *46 0.0148919
*CONN
*I *402:S0 I *D sky130_fd_sc_hd__mux4_1
*I *401:S0 I *D sky130_fd_sc_hd__mux4_1
*I *394:B I *D sky130_fd_sc_hd__nor3b_1
*I *392:S I *D sky130_fd_sc_hd__mux2_1
*I *393:B I *D sky130_fd_sc_hd__and3b_1
*I *399:B I *D sky130_fd_sc_hd__or3b_1
*I *396:S I *D sky130_fd_sc_hd__mux2_1
*I *398:B I *D sky130_fd_sc_hd__nand3b_1
*I *415:X O *D sky130_fd_sc_hd__buf_2
*CAP
1 *402:S0 0.000206282
2 *401:S0 2.30322e-05
3 *394:B 0
4 *392:S 6.14034e-05
5 *393:B 0
6 *399:B 0.000131756
7 *396:S 0.000212008
8 *398:B 0.000124258
9 *415:X 0.00125887
10 *46:57 0.00071636
11 *46:40 0.000825406
12 *46:32 0.000460517
13 *46:24 0.000376083
14 *46:22 0.000950828
15 *46:16 0.00108178
16 *46:10 0.00175579
17 *396:S *399:C_N 0.000103041
18 *398:B *398:C 1.02504e-05
19 *46:10 *47:18 5.83304e-05
20 *46:16 *47:18 0.000312195
21 *46:16 *47:24 8.32242e-05
22 *46:22 *47:24 0
23 *46:22 *50:16 0
24 *46:24 *47:24 0
25 *46:32 *392:A1 0.000129868
26 *46:32 *400:A1 0
27 *46:32 *47:24 0
28 *46:40 *392:A1 0
29 *46:40 *400:A1 0.000411723
30 *46:57 *400:A1 2.36643e-05
31 *392:A0 *392:S 5.52238e-05
32 *392:A0 *46:24 7.83659e-05
33 *395:A1 *46:24 0
34 *395:B1 *46:40 0.000225982
35 *397:A *396:S 0.000151333
36 *397:A *46:57 8.32242e-05
37 *400:A4 *46:57 0.00014051
38 *400:B1 *46:40 0.000167665
39 *400:B1 *46:57 0.000141729
40 *401:A2 *46:16 6.80706e-05
41 *401:A3 *46:16 7.36693e-05
42 *401:A3 *46:22 0.00111696
43 *402:A2 *402:S0 1.14548e-05
44 *402:A2 *46:10 4.73656e-05
45 *402:A2 *46:16 7.6644e-05
46 *402:A3 *402:S0 7.36693e-05
47 *402:A3 *46:22 6.39901e-05
48 *415:A *46:10 2.84109e-05
49 *419:A *396:S 0
50 *32:16 *46:57 5.49489e-05
51 *45:12 *46:10 0.000587033
52 *45:12 *46:16 0.000130307
53 *45:18 *46:22 0.00173969
54 *45:18 *46:24 1.02504e-05
55 *45:24 *46:24 0.000263111
56 *45:24 *46:32 2.37817e-05
57 *45:26 *46:57 0.000142797
58 *45:45 *399:B 1.90303e-05
*RES
1 *415:X *46:10 36.7107 
2 *46:10 *46:16 11.6607 
3 *46:16 *46:22 29.7679 
4 *46:22 *46:24 4.67857 
5 *46:24 *46:32 7.41071 
6 *46:32 *46:40 13.8214 
7 *46:40 *398:B 15.7464 
8 *46:40 *46:57 16.5 
9 *46:57 *396:S 18.7107 
10 *46:57 *399:B 15.1571 
11 *46:32 *393:B 9.3 
12 *46:24 *392:S 15.0679 
13 *46:22 *394:B 13.8 
14 *46:16 *401:S0 9.72857 
15 *46:10 *402:S0 16.4071 
*END

*D_NET *47 0.0100876
*CONN
*I *402:S1 I *D sky130_fd_sc_hd__mux4_1
*I *401:S1 I *D sky130_fd_sc_hd__mux4_1
*I *395:D1 I *D sky130_fd_sc_hd__a2111oi_1
*I *400:A1 I *D sky130_fd_sc_hd__a41o_1
*I *416:X O *D sky130_fd_sc_hd__clkbuf_2
*CAP
1 *402:S1 0
2 *401:S1 0
3 *395:D1 8.6382e-05
4 *400:A1 0.000430047
5 *416:X 0.00177104
6 *47:24 0.00168581
7 *47:18 0.00128086
8 *47:14 0.00188252
9 *400:A1 *392:A1 0
10 *400:A1 *393:C 0
11 *47:24 *405:A1 6.74911e-05
12 *47:24 *50:16 0.00010326
13 *395:A1 *395:D1 1.04232e-05
14 *395:A1 *47:24 0.000314209
15 *395:B1 *400:A1 3.6337e-05
16 *395:C1 *395:D1 1.04232e-05
17 *395:C1 *47:24 0.000272658
18 *400:B1 *400:A1 0.000123689
19 *400:B1 *47:24 2.82057e-05
20 *401:A2 *47:24 3.25078e-05
21 *401:A3 *47:24 0
22 *403:A0 *47:14 0.000123068
23 *403:A0 *47:18 0.000176096
24 *403:A0 *47:24 0.000137054
25 *404:B *47:24 0.00023586
26 *405:B1 *47:24 4.15914e-05
27 *32:16 *47:24 0.000334702
28 *45:12 *47:24 1.42165e-05
29 *46:10 *47:18 5.83304e-05
30 *46:16 *47:18 0.000312195
31 *46:16 *47:24 8.32242e-05
32 *46:22 *47:24 0
33 *46:24 *47:24 0
34 *46:32 *400:A1 0
35 *46:32 *47:24 0
36 *46:40 *400:A1 0.000411723
37 *46:57 *400:A1 2.36643e-05
*RES
1 *416:X *47:14 49.7821 
2 *47:14 *47:18 9.17857 
3 *47:18 *47:24 29.9286 
4 *47:24 *400:A1 23.6393 
5 *47:24 *395:D1 15.175 
6 *47:18 *401:S1 13.8 
7 *47:14 *402:S1 9.3 
*END

*D_NET *48 0.00035533
*CONN
*I *393:C I *D sky130_fd_sc_hd__and3b_1
*I *417:X O *D sky130_fd_sc_hd__clkbuf_1
*CAP
1 *393:C 0.000138482
2 *417:X 0.000138482
3 *393:C *392:A1 7.83659e-05
4 *400:A1 *393:C 0
*RES
1 *417:X *393:C 29.5821 
*END

*D_NET *49 0.0068406
*CONN
*I *405:A1 I *D sky130_fd_sc_hd__a21oi_2
*I *404:A I *D sky130_fd_sc_hd__nor2_1
*I *418:X O *D sky130_fd_sc_hd__buf_1
*CAP
1 *405:A1 0.000115362
2 *404:A 9.44459e-05
3 *418:X 0.001693
4 *49:12 0.00169356
5 *49:10 0.00317675
6 *405:B1 *405:A1 0
7 *47:24 *405:A1 6.74911e-05
*RES
1 *418:X *49:10 49.3893 
2 *49:10 *49:12 24.7679 
3 *49:12 *404:A 10.6571 
4 *49:12 *405:A1 20.675 
*END

*D_NET *50 0.00386076
*CONN
*I *426:A I *D sky130_fd_sc_hd__buf_12
*I *405:Y O *D sky130_fd_sc_hd__a21oi_2
*CAP
1 *426:A 0
2 *405:Y 0.00187875
3 *50:16 0.00187875
4 *46:22 *50:16 0
5 *47:24 *50:16 0.00010326
*RES
1 *405:Y *50:16 41.4607 
2 *50:16 *426:A 9.3 
*END

*D_NET *51 0.00184529
*CONN
*I *392:A1 I *D sky130_fd_sc_hd__mux2_1
*I *419:X O *D sky130_fd_sc_hd__clkbuf_1
*CAP
1 *392:A1 0.000406523
2 *419:X 0.000406523
3 *392:A1 *399:C_N 0.000150618
4 *393:C *392:A1 7.83659e-05
5 *397:A *392:A1 1.92905e-05
6 *400:A1 *392:A1 0
7 *400:A2 *392:A1 0.000153573
8 *400:A3 *392:A1 8.00806e-05
9 *400:A4 *392:A1 1.46624e-05
10 *45:24 *392:A1 8.16036e-05
11 *45:26 *392:A1 0.000324178
12 *46:32 *392:A1 0.000129868
13 *46:40 *392:A1 0
*RES
1 *419:X *392:A1 39.4929 
*END

*D_NET *52 0.00108967
*CONN
*I *399:C_N I *D sky130_fd_sc_hd__or3b_1
*I *420:X O *D sky130_fd_sc_hd__clkbuf_1
*CAP
1 *399:C_N 0.00022824
2 *420:X 0.00022824
3 *399:C_N *396:A0 1.41029e-05
4 *399:C_N *396:A1 0.000129868
5 *399:C_N *398:C 0
6 *392:A1 *399:C_N 0.000150618
7 *396:S *399:C_N 0.000103041
8 *397:A *399:C_N 0.000225307
9 *397:B *399:C_N 0
10 *45:26 *399:C_N 1.02504e-05
*RES
1 *420:X *399:C_N 34.4036 
*END

*D_NET *53 0.00121087
*CONN
*I *396:A0 I *D sky130_fd_sc_hd__mux2_1
*I *421:X O *D sky130_fd_sc_hd__clkbuf_1
*CAP
1 *396:A0 0.000340009
2 *421:X 0.000340009
3 *396:A0 *396:A1 0.000516752
4 *396:A0 *398:C 0
5 *399:C_N *396:A0 1.41029e-05
*RES
1 *421:X *396:A0 35.35 
*END

*D_NET *54 0.00254402
*CONN
*I *398:C I *D sky130_fd_sc_hd__nand3b_1
*I *422:X O *D sky130_fd_sc_hd__clkbuf_1
*CAP
1 *398:C 0.00121654
2 *422:X 0.00121654
3 *398:C *396:A1 0.000100684
4 *396:A0 *398:C 0
5 *398:B *398:C 1.02504e-05
6 *399:C_N *398:C 0
7 *400:A2 *398:C 0
*RES
1 *422:X *398:C 48.7786 
*END

*D_NET *55 0.0018512
*CONN
*I *396:A1 I *D sky130_fd_sc_hd__mux2_1
*I *423:X O *D sky130_fd_sc_hd__clkbuf_1
*CAP
1 *396:A1 0.000551946
2 *423:X 0.000551946
3 *396:A0 *396:A1 0.000516752
4 *398:C *396:A1 0.000100684
5 *399:C_N *396:A1 0.000129868
6 *420:A *396:A1 0
7 *421:A *396:A1 0
*RES
1 *423:X *396:A1 39.9036 
*END

*D_NET *56 0.00316477
*CONN
*I *401:A0 I *D sky130_fd_sc_hd__mux4_1
*I *424:X O *D sky130_fd_sc_hd__clkbuf_1
*CAP
1 *401:A0 0
2 *424:X 0.000991157
3 *56:16 0.000991157
4 *56:16 *57:24 0.000463243
5 *401:A1 *56:16 0
6 *402:A0 *56:16 0.000281748
7 *402:A3 *56:16 0.000295732
8 *406:A *56:16 0
9 *424:A *56:16 0.000141734
10 *45:12 *56:16 0
*RES
1 *424:X *56:16 40.8893 
2 *56:16 *401:A0 9.3 
*END

*D_NET *57 0.00232421
*CONN
*I *402:A1 I *D sky130_fd_sc_hd__mux4_1
*I *425:X O *D sky130_fd_sc_hd__clkbuf_1
*CAP
1 *402:A1 0
2 *425:X 0.000373321
3 *57:24 0.000373321
4 *401:A1 *57:24 0.000202842
5 *402:A0 *57:24 0.000898143
6 *402:A3 *57:24 1.33343e-05
7 *56:16 *57:24 0.000463243
*RES
1 *425:X *57:24 40.925 
2 *57:24 *402:A1 9.3 
*END
