*SPEF "ieee 1481-1999"
*DESIGN "mux16x1_project"
*DATE "11:11:11 Fri 11 11, 1111"
*VENDOR "OpenRCX"
*PROGRAM "Parallel Extraction"
*VERSION "1.0"
*DESIGN_FLOW "NAME_SCOPE LOCAL" "PIN_CAP NONE"
*DIVIDER /
*DELIMITER :
*BUS_DELIMITER []
*T_UNIT 1 NS
*C_UNIT 1 PF
*R_UNIT 1 OHM
*L_UNIT 1 HENRY

*NAME_MAP
*1 data_in[0]
*2 data_in[10]
*3 data_in[11]
*4 data_in[12]
*5 data_in[13]
*6 data_in[14]
*7 data_in[15]
*8 data_in[1]
*9 data_in[2]
*10 data_in[3]
*11 data_in[4]
*12 data_in[5]
*13 data_in[6]
*14 data_in[7]
*15 data_in[8]
*16 data_in[9]
*17 select[0]
*18 select[1]
*19 select[2]
*20 select[3]
*23 y
*24 _00_
*25 _01_
*26 _02_
*27 _03_
*28 _04_
*29 _05_
*30 _06_
*31 _07_
*32 _08_
*33 _09_
*34 _10_
*35 _11_
*36 _12_
*37 net1
*38 net10
*39 net11
*40 net12
*41 net13
*42 net14
*43 net15
*44 net16
*45 net17
*46 net18
*47 net19
*48 net2
*49 net20
*50 net21
*51 net3
*52 net4
*53 net5
*54 net6
*55 net7
*56 net8
*57 net9
*58 FILLER_0_0_21
*59 FILLER_0_0_27
*60 FILLER_0_0_29
*61 FILLER_0_0_41
*62 FILLER_0_0_53
*63 FILLER_0_0_57
*64 FILLER_0_0_69
*65 FILLER_0_0_9
*66 FILLER_0_10_10
*67 FILLER_0_10_22
*68 FILLER_0_10_29
*69 FILLER_0_10_41
*70 FILLER_0_10_53
*71 FILLER_0_10_65
*72 FILLER_0_10_77
*73 FILLER_0_11_20
*74 FILLER_0_11_32
*75 FILLER_0_11_44
*76 FILLER_0_11_57
*77 FILLER_0_11_69
*78 FILLER_0_12_18
*79 FILLER_0_12_26
*80 FILLER_0_12_29
*81 FILLER_0_12_41
*82 FILLER_0_12_53
*83 FILLER_0_12_6
*84 FILLER_0_12_65
*85 FILLER_0_12_77
*86 FILLER_0_13_21
*87 FILLER_0_13_33
*88 FILLER_0_13_45
*89 FILLER_0_13_53
*90 FILLER_0_13_57
*91 FILLER_0_13_69
*92 FILLER_0_13_9
*93 FILLER_0_14_15
*94 FILLER_0_14_27
*95 FILLER_0_14_29
*96 FILLER_0_14_3
*97 FILLER_0_14_41
*98 FILLER_0_14_53
*99 FILLER_0_14_65
*100 FILLER_0_14_77
*101 FILLER_0_15_18
*102 FILLER_0_15_30
*103 FILLER_0_15_42
*104 FILLER_0_15_54
*105 FILLER_0_15_57
*106 FILLER_0_15_6
*107 FILLER_0_15_69
*108 FILLER_0_16_15
*109 FILLER_0_16_27
*110 FILLER_0_16_29
*111 FILLER_0_16_3
*112 FILLER_0_16_41
*113 FILLER_0_16_53
*114 FILLER_0_17_21
*115 FILLER_0_17_33
*116 FILLER_0_17_45
*117 FILLER_0_17_53
*118 FILLER_0_17_57
*119 FILLER_0_17_6
*120 FILLER_0_17_69
*121 FILLER_0_18_11
*122 FILLER_0_18_16
*123 FILLER_0_18_29
*124 FILLER_0_18_3
*125 FILLER_0_18_41
*126 FILLER_0_18_53
*127 FILLER_0_18_65
*128 FILLER_0_18_77
*129 FILLER_0_19_15
*130 FILLER_0_19_27
*131 FILLER_0_19_3
*132 FILLER_0_19_39
*133 FILLER_0_19_51
*134 FILLER_0_19_55
*135 FILLER_0_19_57
*136 FILLER_0_19_69
*137 FILLER_0_1_15
*138 FILLER_0_1_27
*139 FILLER_0_1_3
*140 FILLER_0_1_39
*141 FILLER_0_1_51
*142 FILLER_0_1_55
*143 FILLER_0_1_57
*144 FILLER_0_1_69
*145 FILLER_0_20_18
*146 FILLER_0_20_26
*147 FILLER_0_20_29
*148 FILLER_0_20_41
*149 FILLER_0_20_53
*150 FILLER_0_20_6
*151 FILLER_0_20_65
*152 FILLER_0_20_77
*153 FILLER_0_21_15
*154 FILLER_0_21_27
*155 FILLER_0_21_3
*156 FILLER_0_21_39
*157 FILLER_0_21_51
*158 FILLER_0_21_55
*159 FILLER_0_21_57
*160 FILLER_0_21_69
*161 FILLER_0_22_12
*162 FILLER_0_22_22
*163 FILLER_0_22_29
*164 FILLER_0_22_41
*165 FILLER_0_22_53
*166 FILLER_0_22_6
*167 FILLER_0_22_65
*168 FILLER_0_22_77
*169 FILLER_0_23_24
*170 FILLER_0_23_36
*171 FILLER_0_23_48
*172 FILLER_0_23_57
*173 FILLER_0_23_69
*174 FILLER_0_24_18
*175 FILLER_0_24_26
*176 FILLER_0_24_29
*177 FILLER_0_24_41
*178 FILLER_0_24_53
*179 FILLER_0_24_6
*180 FILLER_0_24_65
*181 FILLER_0_24_77
*182 FILLER_0_25_24
*183 FILLER_0_25_36
*184 FILLER_0_25_48
*185 FILLER_0_25_57
*186 FILLER_0_25_69
*187 FILLER_0_26_15
*188 FILLER_0_26_27
*189 FILLER_0_26_29
*190 FILLER_0_26_3
*191 FILLER_0_26_41
*192 FILLER_0_26_53
*193 FILLER_0_26_65
*194 FILLER_0_26_77
*195 FILLER_0_27_18
*196 FILLER_0_27_30
*197 FILLER_0_27_42
*198 FILLER_0_27_54
*199 FILLER_0_27_57
*200 FILLER_0_27_6
*201 FILLER_0_27_69
*202 FILLER_0_28_15
*203 FILLER_0_28_27
*204 FILLER_0_28_29
*205 FILLER_0_28_3
*206 FILLER_0_28_41
*207 FILLER_0_28_53
*208 FILLER_0_28_65
*209 FILLER_0_28_77
*210 FILLER_0_29_15
*211 FILLER_0_29_27
*212 FILLER_0_29_3
*213 FILLER_0_29_39
*214 FILLER_0_29_51
*215 FILLER_0_29_55
*216 FILLER_0_29_57
*217 FILLER_0_29_69
*218 FILLER_0_2_18
*219 FILLER_0_2_26
*220 FILLER_0_2_29
*221 FILLER_0_2_41
*222 FILLER_0_2_53
*223 FILLER_0_2_6
*224 FILLER_0_2_65
*225 FILLER_0_2_77
*226 FILLER_0_30_18
*227 FILLER_0_30_26
*228 FILLER_0_30_29
*229 FILLER_0_30_41
*230 FILLER_0_30_53
*231 FILLER_0_30_6
*232 FILLER_0_30_65
*233 FILLER_0_30_77
*234 FILLER_0_31_13
*235 FILLER_0_31_25
*236 FILLER_0_31_33
*237 FILLER_0_31_45
*238 FILLER_0_31_53
*239 FILLER_0_31_61
*240 FILLER_0_31_73
*241 FILLER_0_31_77
*242 FILLER_0_3_15
*243 FILLER_0_3_27
*244 FILLER_0_3_3
*245 FILLER_0_3_39
*246 FILLER_0_3_51
*247 FILLER_0_3_55
*248 FILLER_0_3_57
*249 FILLER_0_3_69
*250 FILLER_0_4_18
*251 FILLER_0_4_26
*252 FILLER_0_4_29
*253 FILLER_0_4_41
*254 FILLER_0_4_53
*255 FILLER_0_4_6
*256 FILLER_0_4_65
*257 FILLER_0_4_77
*258 FILLER_0_5_12
*259 FILLER_0_5_24
*260 FILLER_0_5_36
*261 FILLER_0_5_48
*262 FILLER_0_5_57
*263 FILLER_0_5_69
*264 FILLER_0_6_10
*265 FILLER_0_6_22
*266 FILLER_0_6_29
*267 FILLER_0_6_41
*268 FILLER_0_6_53
*269 FILLER_0_6_6
*270 FILLER_0_6_65
*271 FILLER_0_6_77
*272 FILLER_0_7_18
*273 FILLER_0_7_3
*274 FILLER_0_7_30
*275 FILLER_0_7_42
*276 FILLER_0_7_54
*277 FILLER_0_7_57
*278 FILLER_0_7_69
*279 FILLER_0_8_14
*280 FILLER_0_8_26
*281 FILLER_0_8_29
*282 FILLER_0_8_3
*283 FILLER_0_8_41
*284 FILLER_0_8_53
*285 FILLER_0_8_65
*286 FILLER_0_8_77
*287 FILLER_0_9_18
*288 FILLER_0_9_30
*289 FILLER_0_9_42
*290 FILLER_0_9_54
*291 FILLER_0_9_57
*292 FILLER_0_9_6
*293 FILLER_0_9_69
*294 PHY_0
*295 PHY_1
*296 PHY_10
*297 PHY_11
*298 PHY_12
*299 PHY_13
*300 PHY_14
*301 PHY_15
*302 PHY_16
*303 PHY_17
*304 PHY_18
*305 PHY_19
*306 PHY_2
*307 PHY_20
*308 PHY_21
*309 PHY_22
*310 PHY_23
*311 PHY_24
*312 PHY_25
*313 PHY_26
*314 PHY_27
*315 PHY_28
*316 PHY_29
*317 PHY_3
*318 PHY_30
*319 PHY_31
*320 PHY_32
*321 PHY_33
*322 PHY_34
*323 PHY_35
*324 PHY_36
*325 PHY_37
*326 PHY_38
*327 PHY_39
*328 PHY_4
*329 PHY_40
*330 PHY_41
*331 PHY_42
*332 PHY_43
*333 PHY_44
*334 PHY_45
*335 PHY_46
*336 PHY_47
*337 PHY_48
*338 PHY_49
*339 PHY_5
*340 PHY_50
*341 PHY_51
*342 PHY_52
*343 PHY_53
*344 PHY_54
*345 PHY_55
*346 PHY_56
*347 PHY_57
*348 PHY_58
*349 PHY_59
*350 PHY_6
*351 PHY_60
*352 PHY_61
*353 PHY_62
*354 PHY_63
*355 PHY_7
*356 PHY_8
*357 PHY_9
*358 TAP_64
*359 TAP_65
*360 TAP_66
*361 TAP_67
*362 TAP_68
*363 TAP_69
*364 TAP_70
*365 TAP_71
*366 TAP_72
*367 TAP_73
*368 TAP_74
*369 TAP_75
*370 TAP_76
*371 TAP_77
*372 TAP_78
*373 TAP_79
*374 TAP_80
*375 TAP_81
*376 TAP_82
*377 TAP_83
*378 TAP_84
*379 TAP_85
*380 TAP_86
*381 TAP_87
*382 TAP_88
*383 TAP_89
*384 TAP_90
*385 TAP_91
*386 TAP_92
*387 TAP_93
*388 TAP_94
*389 TAP_95
*390 TAP_96
*391 TAP_97
*392 _13_
*393 _14_
*394 _15_
*395 _16_
*396 _17_
*397 _18_
*398 _19_
*399 _20_
*400 _21_
*401 _22_
*402 _23_
*403 _24_
*404 _25_
*405 _26_
*406 input1
*407 input10
*408 input11
*409 input12
*410 input13
*411 input14
*412 input15
*413 input16
*414 input17
*415 input18
*416 input19
*417 input2
*418 input20
*419 input3
*420 input4
*421 input5
*422 input6
*423 input7
*424 input8
*425 input9
*426 output21

*PORTS
data_in[0] I
data_in[10] I
data_in[11] I
data_in[12] I
data_in[13] I
data_in[14] I
data_in[15] I
data_in[1] I
data_in[2] I
data_in[3] I
data_in[4] I
data_in[5] I
data_in[6] I
data_in[7] I
data_in[8] I
data_in[9] I
select[0] I
select[1] I
select[2] I
select[3] I
y O

*D_NET *1 0.00189007
*CONN
*P data_in[0] I
*I *406:A I *D sky130_fd_sc_hd__clkbuf_1
*CAP
1 data_in[0] 0.00066742
2 *406:A 0
3 *1:13 0.00066742
4 *1:13 *414:A 5.67058e-05
5 *1:13 *8:19 0.000355888
6 *1:13 *9:13 0
7 *1:13 *45:8 0.000142636
8 *1:13 *56:16 0
*RES
1 data_in[0] *1:13 37.0962 
2 *1:13 *406:A 23 
*END

*D_NET *2 0.00052814
*CONN
*P data_in[10] I
*I *417:A I *D sky130_fd_sc_hd__clkbuf_1
*CAP
1 data_in[10] 0.00026407
2 *417:A 0.00026407
3 *417:A *413:A 0
4 *417:A *3:13 0
*RES
1 data_in[10] *417:A 49.1767 
*END

*D_NET *3 0.000704622
*CONN
*P data_in[11] I
*I *419:A I *D sky130_fd_sc_hd__clkbuf_1
*CAP
1 data_in[11] 0.000352311
2 *419:A 0
3 *3:13 0.000352311
4 *3:13 *396:S 0
5 *3:13 *420:A 0
6 *417:A *3:13 0
*RES
1 data_in[11] *3:13 27.9375 
2 *3:13 *419:A 23 
*END

*D_NET *4 0.000551252
*CONN
*P data_in[12] I
*I *420:A I *D sky130_fd_sc_hd__clkbuf_1
*CAP
1 data_in[12] 0.000275626
2 *420:A 0.000275626
3 *420:A *421:A 0
4 *420:A *55:12 0
5 *3:13 *420:A 0
*RES
1 data_in[12] *420:A 49.5289 
*END

*D_NET *5 0.000582129
*CONN
*P data_in[13] I
*I *421:A I *D sky130_fd_sc_hd__clkbuf_1
*CAP
1 data_in[13] 0.000291065
2 *421:A 0.000291065
3 *421:A *6:13 0
4 *421:A *55:12 0
5 *420:A *421:A 0
*RES
1 data_in[13] *421:A 49.881 
*END

*D_NET *6 0.000705531
*CONN
*P data_in[14] I
*I *422:A I *D sky130_fd_sc_hd__clkbuf_1
*CAP
1 data_in[14] 0.000352765
2 *422:A 0
3 *6:13 0.000352765
4 *6:13 *7:15 0
5 *421:A *6:13 0
*RES
1 data_in[14] *6:13 28.2896 
2 *6:13 *422:A 23 
*END

*D_NET *7 0.00144422
*CONN
*P data_in[15] I
*I *423:A I *D sky130_fd_sc_hd__clkbuf_1
*CAP
1 data_in[15] 0.000722108
2 *423:A 0
3 *7:15 0.000722108
4 *6:13 *7:15 0
*RES
1 data_in[15] *7:15 33.0269 
2 *7:15 *423:A 23 
*END

*D_NET *8 0.00167708
*CONN
*P data_in[1] I
*I *424:A I *D sky130_fd_sc_hd__clkbuf_1
*CAP
1 data_in[1] 0.000515261
2 *424:A 0
3 *8:19 0.000515261
4 *8:19 *414:A 7.20937e-05
5 *8:19 *9:13 0
6 *8:19 *45:8 7.40718e-05
7 *8:19 *56:8 0.000144501
8 *1:13 *8:19 0.000355888
*RES
1 data_in[1] *8:19 31.5271 
2 *8:19 *424:A 23 
*END

*D_NET *9 0.000705531
*CONN
*P data_in[2] I
*I *425:A I *D sky130_fd_sc_hd__clkbuf_1
*CAP
1 data_in[2] 0.000352765
2 *425:A 0
3 *9:13 0.000352765
4 *9:13 *10:13 0
5 *9:13 *37:20 0
6 *1:13 *9:13 0
7 *8:19 *9:13 0
*RES
1 data_in[2] *9:13 28.2896 
2 *9:13 *425:A 23 
*END

*D_NET *10 0.000622883
*CONN
*P data_in[3] I
*I *407:A I *D sky130_fd_sc_hd__clkbuf_1
*CAP
1 data_in[3] 0.000309585
2 *407:A 0
3 *10:13 0.000309585
4 *10:13 *408:A 0
5 *10:13 *37:20 0
6 *10:13 *38:10 3.7122e-06
7 *9:13 *10:13 0
*RES
1 data_in[3] *10:13 27.2332 
2 *10:13 *407:A 23 
*END

*D_NET *11 0.00056925
*CONN
*P data_in[4] I
*I *408:A I *D sky130_fd_sc_hd__clkbuf_1
*CAP
1 data_in[4] 0.000284625
2 *408:A 0.000284625
3 *408:A *409:A 0
4 *408:A *38:10 0
5 *10:13 *408:A 0
*RES
1 data_in[4] *408:A 49.5289 
*END

*D_NET *12 0.000570159
*CONN
*P data_in[5] I
*I *409:A I *D sky130_fd_sc_hd__clkbuf_1
*CAP
1 data_in[5] 0.00028508
2 *409:A 0.00028508
3 *409:A *13:13 0
4 *409:A *41:16 0
5 *408:A *409:A 0
*RES
1 data_in[5] *409:A 49.881 
*END

*D_NET *13 0.000705531
*CONN
*P data_in[6] I
*I *410:A I *D sky130_fd_sc_hd__clkbuf_1
*CAP
1 data_in[6] 0.000352765
2 *410:A 0
3 *13:13 0.000352765
4 *13:13 *14:13 0
5 *13:13 *45:18 0
6 *409:A *13:13 0
*RES
1 data_in[6] *13:13 28.2896 
2 *13:13 *410:A 23 
*END

*D_NET *14 0.00061298
*CONN
*P data_in[7] I
*I *411:A I *D sky130_fd_sc_hd__clkbuf_1
*CAP
1 data_in[7] 0.00030649
2 *411:A 0
3 *14:13 0.00030649
4 *14:13 *15:13 0
5 *14:13 *45:18 0
6 *13:13 *14:13 0
*RES
1 data_in[7] *14:13 27.2332 
2 *14:13 *411:A 23 
*END

*D_NET *15 0.000736381
*CONN
*P data_in[8] I
*I *412:A I *D sky130_fd_sc_hd__clkbuf_1
*CAP
1 data_in[8] 0.000368191
2 *412:A 0
3 *15:13 0.000368191
4 *15:13 *413:A 0
5 *15:13 *43:10 0
6 *15:13 *45:18 0
7 *14:13 *15:13 0
*RES
1 data_in[8] *15:13 28.6417 
2 *15:13 *412:A 23 
*END

*D_NET *16 0.000594099
*CONN
*P data_in[9] I
*I *413:A I *D sky130_fd_sc_hd__clkbuf_1
*CAP
1 data_in[9] 0.000297049
2 *413:A 0.000297049
3 *413:A *45:24 0
4 *417:A *413:A 0
5 *15:13 *413:A 0
*RES
1 data_in[9] *413:A 49.881 
*END

*D_NET *17 0.00116849
*CONN
*P select[0] I
*I *414:A I *D sky130_fd_sc_hd__clkbuf_2
*CAP
1 select[0] 0.000519845
2 *414:A 0.000519845
3 *1:13 *414:A 5.67058e-05
4 *8:19 *414:A 7.20937e-05
*RES
1 select[0] *414:A 49.4757 
*END

*D_NET *18 0.00105535
*CONN
*P select[1] I
*I *415:A I *D sky130_fd_sc_hd__buf_2
*CAP
1 select[1] 0.000513004
2 *415:A 0.000513004
3 *415:A *46:8 2.93431e-05
*RES
1 select[1] *415:A 48.73 
*END

*D_NET *19 0.00117251
*CONN
*P select[2] I
*I *416:A I *D sky130_fd_sc_hd__clkbuf_2
*CAP
1 select[2] 0.000586254
2 *416:A 0.000586254
*RES
1 select[2] *416:A 49.8071 
*END

*D_NET *20 0.00108379
*CONN
*P select[3] I
*I *418:A I *D sky130_fd_sc_hd__buf_1
*CAP
1 select[3] 0.000541896
2 *418:A 0.000541896
*RES
1 select[3] *418:A 49.4964 
*END

*D_NET *23 0.00119105
*CONN
*P y O
*I *426:X O *D sky130_fd_sc_hd__buf_12
*CAP
1 y 0.000595523
2 *426:X 0.000595523
*RES
1 *426:X y 49.4631 
*END

*D_NET *24 0.000180444
*CONN
*I *395:A2 I *D sky130_fd_sc_hd__a2111oi_1
*I *392:X O *D sky130_fd_sc_hd__mux2_1
*CAP
1 *395:A2 9.0222e-05
2 *392:X 9.0222e-05
*RES
1 *392:X *395:A2 47.0979 
*END

*D_NET *25 0.000827381
*CONN
*I *395:B1 I *D sky130_fd_sc_hd__a2111oi_1
*I *393:X O *D sky130_fd_sc_hd__and3b_1
*CAP
1 *395:B1 0
2 *393:X 0.000259519
3 *25:10 0.000259519
4 *25:10 *400:A1 3.76854e-05
5 *25:10 *27:8 4.08641e-05
6 *25:10 *46:40 0.000229793
*RES
1 *393:X *25:10 42.205 
2 *25:10 *395:B1 38 
*END

*D_NET *26 0.00154897
*CONN
*I *395:C1 I *D sky130_fd_sc_hd__a2111oi_1
*I *394:Y O *D sky130_fd_sc_hd__nor3b_1
*CAP
1 *395:C1 2.76088e-05
2 *394:Y 0.000423021
3 *26:10 0.00045063
4 *395:C1 *395:D1 1.14154e-05
5 *395:C1 *45:88 2.86899e-05
6 *26:10 *27:8 1.14452e-05
7 *26:10 *32:16 0.000145823
8 *26:10 *45:88 0.000148007
9 *26:10 *47:24 0.00030233
*RES
1 *394:Y *26:10 45.975 
2 *26:10 *395:C1 38.8493 
*END

*D_NET *27 0.00203723
*CONN
*I *400:B1 I *D sky130_fd_sc_hd__a41o_1
*I *395:Y O *D sky130_fd_sc_hd__a2111oi_1
*CAP
1 *400:B1 9.54407e-05
2 *395:Y 0.000256556
3 *27:8 0.000351997
4 *400:B1 *400:A1 0.000102389
5 *400:B1 *32:8 7.27182e-05
6 *400:B1 *46:57 0.000144494
7 *27:8 *400:A1 2.47132e-05
8 *27:8 *32:16 0.000737612
9 *27:8 *46:40 0.000169489
10 *27:8 *47:24 2.95125e-05
11 *25:10 *27:8 4.08641e-05
12 *26:10 *27:8 1.14452e-05
*RES
1 *395:Y *27:8 47.6529 
2 *27:8 *400:B1 41.0036 
*END

*D_NET *28 0.000431155
*CONN
*I *397:B I *D sky130_fd_sc_hd__nand2_1
*I *396:X O *D sky130_fd_sc_hd__mux2_1
*CAP
1 *397:B 0
2 *396:X 0.000215577
3 *28:10 0.000215577
4 *28:10 *52:8 0
*RES
1 *396:X *28:10 41.0036 
2 *28:10 *397:B 38 
*END

*D_NET *29 0.00098975
*CONN
*I *400:A2 I *D sky130_fd_sc_hd__a41o_1
*I *397:Y O *D sky130_fd_sc_hd__nand2_1
*CAP
1 *400:A2 0
2 *397:Y 0.000310922
3 *29:14 0.000310922
4 *29:14 *397:A 5.37348e-06
5 *29:14 *30:10 8.62876e-05
6 *29:14 *31:12 0.000109352
7 *29:14 *51:12 0.000166893
8 *29:14 *54:14 0
*RES
1 *397:Y *29:14 43.4064 
2 *29:14 *400:A2 38 
*END

*D_NET *30 0.000768984
*CONN
*I *400:A3 I *D sky130_fd_sc_hd__a41o_1
*I *398:Y O *D sky130_fd_sc_hd__nand3b_1
*CAP
1 *400:A3 0
2 *398:Y 0.000216566
3 *30:10 0.000216566
4 *30:10 *398:A_N 5.97265e-06
5 *30:10 *31:12 0.000100069
6 *30:10 *45:45 5.50049e-05
7 *30:10 *51:12 8.85189e-05
8 *29:14 *30:10 8.62876e-05
*RES
1 *398:Y *30:10 41.7286 
2 *30:10 *400:A3 38 
*END

*D_NET *31 0.000961477
*CONN
*I *400:A4 I *D sky130_fd_sc_hd__a41o_1
*I *399:X O *D sky130_fd_sc_hd__or3b_1
*CAP
1 *400:A4 6.63355e-05
2 *399:X 0.000206443
3 *31:12 0.000272779
4 *400:A4 *46:57 0.000141215
5 *31:12 *398:A_N 3.20697e-05
6 *31:12 *45:45 1.87445e-05
7 *31:12 *51:12 1.4471e-05
8 *29:14 *31:12 0.000109352
9 *30:10 *31:12 0.000100069
*RES
1 *399:X *31:12 42.5571 
2 *31:12 *400:A4 39.5743 
*END

*D_NET *32 0.00394556
*CONN
*I *405:A2 I *D sky130_fd_sc_hd__a21oi_2
*I *400:X O *D sky130_fd_sc_hd__a41o_1
*CAP
1 *405:A2 0
2 *400:X 0.000173647
3 *32:16 0.00111858
4 *32:8 0.00129223
5 *32:8 *46:57 5.56279e-05
6 *32:16 *47:24 0.000349329
7 *400:B1 *32:8 7.27182e-05
8 *26:10 *32:16 0.000145823
9 *27:8 *32:16 0.000737612
*RES
1 *400:X *32:8 40.5271 
2 *32:8 *32:16 42.4464 
3 *32:16 *405:A2 23 
*END

*D_NET *33 0.000717209
*CONN
*I *403:A1 I *D sky130_fd_sc_hd__mux2_1
*I *401:X O *D sky130_fd_sc_hd__mux4_1
*CAP
1 *403:A1 0.000257048
2 *401:X 8.10608e-05
3 *33:8 0.000338109
4 *403:A1 *403:S 4.09911e-05
*RES
1 *401:X *33:8 39.2014 
2 *33:8 *403:A1 41.3764 
*END

*D_NET *34 0.00168329
*CONN
*I *403:A0 I *D sky130_fd_sc_hd__mux2_1
*I *402:X O *D sky130_fd_sc_hd__mux4_1
*CAP
1 *403:A0 2.9078e-05
2 *402:X 0.000557496
3 *34:10 0.000586574
4 *403:A0 *403:S 5.50049e-05
5 *34:10 *47:14 0.000128106
6 *34:10 *47:18 0.000183898
7 *34:10 *47:24 0.000143137
*RES
1 *402:X *34:10 48.7714 
2 *34:10 *403:A0 38.6214 
*END

*D_NET *35 0.00114221
*CONN
*I *404:B I *D sky130_fd_sc_hd__nor2_1
*I *403:X O *D sky130_fd_sc_hd__mux2_1
*CAP
1 *404:B 0
2 *403:X 0.000457863
3 *35:8 0.000457863
4 *35:8 *42:14 0
5 *35:8 *47:24 0.000226481
*RES
1 *403:X *35:8 48.7093 
2 *35:8 *404:B 38 
*END

*D_NET *36 0.000264014
*CONN
*I *405:B1 I *D sky130_fd_sc_hd__a21oi_2
*I *404:Y O *D sky130_fd_sc_hd__nor2_1
*CAP
1 *405:B1 4.01155e-05
2 *404:Y 7.02213e-05
3 *36:8 0.000110337
4 *405:B1 *49:27 0
5 *36:8 *42:14 0
6 *36:8 *47:24 4.334e-05
*RES
1 *404:Y *36:8 39.2014 
2 *36:8 *405:B1 38.8493 
*END

*D_NET *37 0.00276484
*CONN
*I *402:A0 I *D sky130_fd_sc_hd__mux4_1
*I *406:X O *D sky130_fd_sc_hd__clkbuf_1
*CAP
1 *402:A0 0
2 *406:X 0.000194978
3 *37:20 0.000485885
4 *37:12 0.000680863
5 *37:12 *45:8 2.64616e-05
6 *37:12 *56:16 0.000183563
7 *37:20 *38:10 7.64949e-05
8 *37:20 *56:16 0.000121156
9 *37:20 *57:12 0.000772393
10 *37:20 *57:24 0.000223043
11 *9:13 *37:20 0
12 *10:13 *37:20 0
*RES
1 *406:X *37:12 42.1532 
2 *37:12 *37:20 29.4689 
3 *37:20 *402:A0 23 
*END

*D_NET *38 0.00173346
*CONN
*I *401:A1 I *D sky130_fd_sc_hd__mux4_1
*I *407:X O *D sky130_fd_sc_hd__clkbuf_1
*CAP
1 *401:A1 0
2 *407:X 0.000521589
3 *38:10 0.000521589
4 *38:10 *41:16 0.000384805
5 *38:10 *56:16 0
6 *38:10 *57:24 0.000225275
7 *408:A *38:10 0
8 *10:13 *38:10 3.7122e-06
9 *37:20 *38:10 7.64949e-05
*RES
1 *407:X *38:10 49.455 
2 *38:10 *401:A1 38 
*END

*D_NET *39 0.00117017
*CONN
*I *402:A2 I *D sky130_fd_sc_hd__mux4_1
*I *408:X O *D sky130_fd_sc_hd__clkbuf_1
*CAP
1 *402:A2 1.81789e-05
2 *408:X 0.000425576
3 *39:10 0.000443755
4 *402:A2 *402:S0 1.16872e-05
5 *39:10 *45:12 0.00013449
6 *39:10 *46:10 5.24393e-05
7 *39:10 *46:16 8.4047e-05
*RES
1 *408:X *39:10 44.3386 
2 *39:10 *402:A2 38.2745 
*END

*D_NET *40 0.00129136
*CONN
*I *401:A2 I *D sky130_fd_sc_hd__mux4_1
*I *409:X O *D sky130_fd_sc_hd__clkbuf_1
*CAP
1 *401:A2 1.81789e-05
2 *409:X 0.000396305
3 *40:10 0.000414484
4 *401:A2 *46:16 1.16872e-05
5 *40:10 *403:S 2.93845e-05
6 *40:10 *45:12 0.00013449
7 *40:10 *45:18 0.000190499
8 *40:10 *46:16 6.25829e-05
9 *40:10 *47:24 3.3746e-05
*RES
1 *409:X *40:10 44.3386 
2 *40:10 *401:A2 38.2745 
*END

*D_NET *41 0.00274522
*CONN
*I *402:A3 I *D sky130_fd_sc_hd__mux4_1
*I *410:X O *D sky130_fd_sc_hd__clkbuf_1
*CAP
1 *402:A3 0
2 *410:X 5.78505e-05
3 *41:16 0.000678275
4 *41:8 0.000736125
5 *41:16 *402:S0 7.60917e-05
6 *41:16 *42:14 2.04774e-05
7 *41:16 *45:12 0
8 *41:16 *45:18 0.000385726
9 *41:16 *46:22 6.67764e-05
10 *41:16 *56:16 0.000325863
11 *41:16 *57:24 1.32314e-05
12 *409:A *41:16 0
13 *38:10 *41:16 0.000384805
*RES
1 *410:X *41:8 38.6214 
2 *41:8 *41:16 32.7521 
3 *41:16 *402:A3 23 
*END

*D_NET *42 0.00299486
*CONN
*I *401:A3 I *D sky130_fd_sc_hd__mux4_1
*I *411:X O *D sky130_fd_sc_hd__clkbuf_1
*CAP
1 *401:A3 0
2 *411:X 0.000105933
3 *42:14 0.000726167
4 *42:8 0.0008321
5 *42:14 *45:12 0
6 *42:14 *46:16 7.60917e-05
7 *42:14 *46:22 0.00123409
8 *42:14 *47:24 0
9 *35:8 *42:14 0
10 *36:8 *42:14 0
11 *41:16 *42:14 2.04774e-05
*RES
1 *411:X *42:8 39.0979 
2 *42:8 *42:14 33.995 
3 *42:14 *401:A3 23 
*END

*D_NET *43 0.000860663
*CONN
*I *394:C_N I *D sky130_fd_sc_hd__nor3b_1
*I *412:X O *D sky130_fd_sc_hd__clkbuf_1
*CAP
1 *394:C_N 0
2 *412:X 0.000237473
3 *43:10 0.000237473
4 *43:10 *45:18 0.000346476
5 *43:10 *45:24 3.92407e-05
6 *15:13 *43:10 0
*RES
1 *412:X *43:10 43.6964 
2 *43:10 *394:C_N 38 
*END

*D_NET *44 0.000482176
*CONN
*I *392:A0 I *D sky130_fd_sc_hd__mux2_1
*I *413:X O *D sky130_fd_sc_hd__clkbuf_1
*CAP
1 *392:A0 9.05982e-05
2 *413:X 3.55839e-05
3 *44:8 0.000126182
4 *392:A0 *392:S 5.50049e-05
5 *44:8 *45:24 8.85189e-05
6 *44:8 *46:24 8.62876e-05
*RES
1 *413:X *44:8 39.2014 
2 *44:8 *392:A0 39.0979 
*END

*D_NET *45 0.0152372
*CONN
*I *403:S I *D sky130_fd_sc_hd__mux2_1
*I *394:A I *D sky130_fd_sc_hd__nor3b_1
*I *395:A1 I *D sky130_fd_sc_hd__a2111oi_1
*I *393:A_N I *D sky130_fd_sc_hd__and3b_1
*I *399:A I *D sky130_fd_sc_hd__or3b_1
*I *398:A_N I *D sky130_fd_sc_hd__nand3b_1
*I *397:A I *D sky130_fd_sc_hd__nand2_1
*I *414:X O *D sky130_fd_sc_hd__clkbuf_2
*CAP
1 *403:S 0.000190919
2 *394:A 0
3 *395:A1 0
4 *393:A_N 4.50142e-05
5 *399:A 0
6 *398:A_N 0.000410086
7 *397:A 0.000175951
8 *414:X 0.000183296
9 *45:88 0.000464909
10 *45:76 0.000464909
11 *45:45 0.000589461
12 *45:26 0.000699962
13 *45:24 0.000769463
14 *45:18 0.0013133
15 *45:12 0.00218506
16 *45:8 0.00124396
17 *397:A *396:S 0.000167443
18 *397:A *46:57 9.26098e-05
19 *397:A *51:8 1.94812e-05
20 *397:A *52:8 0.000249909
21 *45:12 *46:10 0.000609798
22 *45:12 *46:16 0.00013537
23 *45:12 *47:24 1.35764e-05
24 *45:12 *56:16 0
25 *45:18 *46:22 0.00193275
26 *45:18 *46:24 1.14452e-05
27 *45:24 *46:24 0.000290777
28 *45:24 *46:32 2.45964e-05
29 *45:24 *51:12 8.51432e-05
30 *45:26 *46:57 0.000158229
31 *45:26 *51:12 0.000338421
32 *45:26 *52:8 1.14452e-05
33 *45:45 *399:B 1.85916e-05
34 *45:88 *395:D1 1.14154e-05
35 *45:88 *46:24 0
36 *45:88 *47:24 0.000348076
37 *395:C1 *45:88 2.86899e-05
38 *403:A0 *403:S 5.50049e-05
39 *403:A1 *403:S 4.09911e-05
40 *413:A *45:24 0
41 *1:13 *45:8 0.000142636
42 *8:19 *45:8 7.40718e-05
43 *13:13 *45:18 0
44 *14:13 *45:18 0
45 *15:13 *45:18 0
46 *26:10 *45:88 0.000148007
47 *29:14 *397:A 5.37348e-06
48 *30:10 *398:A_N 5.97265e-06
49 *30:10 *45:45 5.50049e-05
50 *31:12 *398:A_N 3.20697e-05
51 *31:12 *45:45 1.87445e-05
52 *37:12 *45:8 2.64616e-05
53 *39:10 *45:12 0.00013449
54 *40:10 *403:S 2.93845e-05
55 *40:10 *45:12 0.00013449
56 *40:10 *45:18 0.000190499
57 *41:16 *45:12 0
58 *41:16 *45:18 0.000385726
59 *42:14 *45:12 0
60 *43:10 *45:18 0.000346476
61 *43:10 *45:24 3.92407e-05
62 *44:8 *45:24 8.85189e-05
*RES
1 *414:X *45:8 41.48 
2 *45:8 *45:12 40.1471 
3 *45:12 *45:18 44.4557 
4 *45:18 *45:24 9.01071 
5 *45:24 *45:26 8.94857 
6 *45:26 *397:A 42.8886 
7 *45:26 *45:45 18.3971 
8 *45:45 *398:A_N 29.2971 
9 *45:45 *399:A 23 
10 *45:24 *393:A_N 38.6214 
11 *45:18 *45:76 15 
12 *45:76 *45:88 40.5021 
13 *45:88 *395:A1 23 
14 *45:76 *394:A 23 
15 *45:12 *403:S 27.1429 
*END

*D_NET *46 0.0165046
*CONN
*I *402:S0 I *D sky130_fd_sc_hd__mux4_1
*I *401:S0 I *D sky130_fd_sc_hd__mux4_1
*I *394:B I *D sky130_fd_sc_hd__nor3b_1
*I *392:S I *D sky130_fd_sc_hd__mux2_1
*I *393:B I *D sky130_fd_sc_hd__and3b_1
*I *399:B I *D sky130_fd_sc_hd__or3b_1
*I *396:S I *D sky130_fd_sc_hd__mux2_1
*I *398:B I *D sky130_fd_sc_hd__nand3b_1
*I *415:X O *D sky130_fd_sc_hd__buf_2
*CAP
1 *402:S0 0.000226253
2 *401:S0 2.41702e-05
3 *394:B 0
4 *392:S 6.73998e-05
5 *393:B 0
6 *399:B 0.000150739
7 *396:S 0.000242144
8 *398:B 0.000142281
9 *415:X 0.000612858
10 *46:57 0.000819779
11 *46:40 0.000946915
12 *46:32 0.000528203
13 *46:24 0.000428658
14 *46:22 0.0010962
15 *46:16 0.00124494
16 *46:10 0.00132138
17 *46:8 0.00137262
18 *396:S *52:8 0.000107548
19 *398:B *54:14 1.14452e-05
20 *46:10 *47:18 6.48142e-05
21 *46:16 *47:18 0.000346476
22 *46:16 *47:24 9.26098e-05
23 *46:22 *47:24 0
24 *46:22 *50:8 0
25 *46:24 *47:24 0
26 *46:32 *400:A1 0
27 *46:32 *47:24 0
28 *46:32 *51:12 0.00014411
29 *46:40 *400:A1 0.000459998
30 *46:40 *51:12 0
31 *46:57 *400:A1 2.46906e-05
32 *392:A0 *392:S 5.50049e-05
33 *397:A *396:S 0.000167443
34 *397:A *46:57 9.26098e-05
35 *400:A4 *46:57 0.000141215
36 *400:B1 *46:57 0.000144494
37 *401:A2 *46:16 1.16872e-05
38 *402:A2 *402:S0 1.16872e-05
39 *415:A *46:8 2.93431e-05
40 *3:13 *396:S 0
41 *25:10 *46:40 0.000229793
42 *27:8 *46:40 0.000169489
43 *32:8 *46:57 5.56279e-05
44 *39:10 *46:10 5.24393e-05
45 *39:10 *46:16 8.4047e-05
46 *40:10 *46:16 6.25829e-05
47 *41:16 *402:S0 7.60917e-05
48 *41:16 *46:22 6.67764e-05
49 *42:14 *46:16 7.60917e-05
50 *42:14 *46:22 0.00123409
51 *44:8 *46:24 8.62876e-05
52 *45:12 *46:10 0.000609798
53 *45:12 *46:16 0.00013537
54 *45:18 *46:22 0.00193275
55 *45:18 *46:24 1.14452e-05
56 *45:24 *46:24 0.000290777
57 *45:24 *46:32 2.45964e-05
58 *45:26 *46:57 0.000158229
59 *45:45 *399:B 1.85916e-05
60 *45:88 *46:24 0
*RES
1 *415:X *46:8 45.7679 
2 *46:8 *46:10 18.8086 
3 *46:10 *46:16 23.3064 
4 *46:16 *46:22 44.3107 
5 *46:22 *46:24 5.42714 
6 *46:24 *46:32 18.3764 
7 *46:32 *46:40 25.8129 
8 *46:40 *398:B 40.2579 
9 *46:40 *46:57 38.7 
10 *46:57 *396:S 43.6964 
11 *46:57 *399:B 39.5743 
12 *46:32 *393:B 23 
13 *46:24 *392:S 39.4707 
14 *46:22 *394:B 38 
15 *46:16 *401:S0 23.4971 
16 *46:10 *402:S0 41.0243 
*END

*D_NET *47 0.0110604
*CONN
*I *402:S1 I *D sky130_fd_sc_hd__mux4_1
*I *401:S1 I *D sky130_fd_sc_hd__mux4_1
*I *395:D1 I *D sky130_fd_sc_hd__a2111oi_1
*I *400:A1 I *D sky130_fd_sc_hd__a41o_1
*I *416:X O *D sky130_fd_sc_hd__clkbuf_2
*CAP
1 *402:S1 0
2 *401:S1 0
3 *395:D1 9.81483e-05
4 *400:A1 0.00048675
5 *416:X 0
6 *47:24 0.00191496
7 *47:18 0.00146471
8 *47:14 0.00116462
9 *47:12 0.00189947
10 *47:6 0.000869506
11 *400:A1 *48:10 0
12 *400:A1 *51:12 0
13 *47:24 *49:27 7.03766e-05
14 *47:24 *50:8 0.000114083
15 *395:C1 *395:D1 1.14154e-05
16 *400:B1 *400:A1 0.000102389
17 *25:10 *400:A1 3.76854e-05
18 *26:10 *47:24 0.00030233
19 *27:8 *400:A1 2.47132e-05
20 *27:8 *47:24 2.95125e-05
21 *32:16 *47:24 0.000349329
22 *34:10 *47:14 0.000128106
23 *34:10 *47:18 0.000183898
24 *34:10 *47:24 0.000143137
25 *35:8 *47:24 0.000226481
26 *36:8 *47:24 4.334e-05
27 *40:10 *47:24 3.3746e-05
28 *42:14 *47:24 0
29 *45:12 *47:24 1.35764e-05
30 *45:88 *395:D1 1.14154e-05
31 *45:88 *47:24 0.000348076
32 *46:10 *47:18 6.48142e-05
33 *46:16 *47:18 0.000346476
34 *46:16 *47:24 9.26098e-05
35 *46:22 *47:24 0
36 *46:24 *47:24 0
37 *46:32 *400:A1 0
38 *46:32 *47:24 0
39 *46:40 *400:A1 0.000459998
40 *46:57 *400:A1 2.46906e-05
*RES
1 *416:X *47:6 38 
2 *47:6 *47:12 31.8407 
3 *47:12 *47:14 19.6786 
4 *47:14 *47:18 20.4271 
5 *47:18 *47:24 34.7171 
6 *47:24 *400:A1 49.4136 
7 *47:24 *395:D1 39.595 
8 *47:18 *401:S1 38 
9 *47:14 *402:S1 23 
*END

*D_NET *48 0.000400745
*CONN
*I *393:C I *D sky130_fd_sc_hd__and3b_1
*I *417:X O *D sky130_fd_sc_hd__clkbuf_1
*CAP
1 *393:C 0
2 *417:X 0.000157229
3 *48:10 0.000157229
4 *48:10 *51:12 8.62876e-05
5 *400:A1 *48:10 0
*RES
1 *417:X *48:10 40.2993 
2 *48:10 *393:C 38 
*END

*D_NET *49 0.007362
*CONN
*I *405:A1 I *D sky130_fd_sc_hd__a21oi_2
*I *404:A I *D sky130_fd_sc_hd__nor2_1
*I *418:X O *D sky130_fd_sc_hd__buf_1
*CAP
1 *405:A1 0
2 *404:A 0.000107513
3 *418:X 0
4 *49:27 0.000131236
5 *49:12 0.00179651
6 *49:8 0.00340706
7 *49:6 0.0018493
8 *405:B1 *49:27 0
9 *47:24 *49:27 7.03766e-05
*RES
1 *418:X *49:6 38 
2 *49:6 *49:8 36.0636 
3 *49:8 *49:12 43.7307 
4 *49:12 *404:A 24.5743 
5 *49:12 *49:27 32.755 
6 *49:27 *405:A1 23 
*END

*D_NET *50 0.0040118
*CONN
*I *426:A I *D sky130_fd_sc_hd__buf_12
*I *405:Y O *D sky130_fd_sc_hd__a21oi_2
*CAP
1 *426:A 0
2 *405:Y 6.55153e-05
3 *50:16 0.00188334
4 *50:8 0.00194886
5 *46:22 *50:8 0
6 *47:24 *50:8 0.000114083
*RES
1 *405:Y *50:8 39.5536 
2 *50:8 *50:16 40.3129 
3 *50:16 *426:A 23 
*END

*D_NET *51 0.00207811
*CONN
*I *392:A1 I *D sky130_fd_sc_hd__mux2_1
*I *419:X O *D sky130_fd_sc_hd__clkbuf_1
*CAP
1 *392:A1 0
2 *419:X 5.05574e-05
3 *51:12 0.000433576
4 *51:8 0.000484133
5 *51:12 *52:8 0.000166513
6 *397:A *51:8 1.94812e-05
7 *400:A1 *51:12 0
8 *29:14 *51:12 0.000166893
9 *30:10 *51:12 8.85189e-05
10 *31:12 *51:12 1.4471e-05
11 *45:24 *51:12 8.51432e-05
12 *45:26 *51:12 0.000338421
13 *46:32 *51:12 0.00014411
14 *46:40 *51:12 0
15 *48:10 *51:12 8.62876e-05
*RES
1 *419:X *51:8 38.6214 
2 *51:8 *51:12 28.1743 
3 *51:12 *392:A1 23 
*END

*D_NET *52 0.00123033
*CONN
*I *399:C_N I *D sky130_fd_sc_hd__or3b_1
*I *420:X O *D sky130_fd_sc_hd__clkbuf_1
*CAP
1 *399:C_N 0
2 *420:X 0.000268023
3 *52:8 0.000268023
4 *52:8 *53:10 1.47563e-05
5 *52:8 *54:14 0
6 *52:8 *55:12 0.00014411
7 *396:S *52:8 0.000107548
8 *397:A *52:8 0.000249909
9 *28:10 *52:8 0
10 *45:26 *52:8 1.14452e-05
11 *51:12 *52:8 0.000166513
*RES
1 *420:X *52:8 45.8921 
2 *52:8 *399:C_N 38 
*END

*D_NET *53 0.00134907
*CONN
*I *396:A0 I *D sky130_fd_sc_hd__mux2_1
*I *421:X O *D sky130_fd_sc_hd__clkbuf_1
*CAP
1 *396:A0 0
2 *421:X 0.000380167
3 *53:10 0.000380167
4 *53:10 *54:14 0
5 *53:10 *55:12 0.000573981
6 *52:8 *53:10 1.47563e-05
*RES
1 *421:X *53:10 46.99 
2 *53:10 *396:A0 38 
*END

*D_NET *54 0.00279073
*CONN
*I *398:C I *D sky130_fd_sc_hd__nand3b_1
*I *422:X O *D sky130_fd_sc_hd__clkbuf_1
*CAP
1 *398:C 0
2 *422:X 0.000287111
3 *54:14 0.00105213
4 *54:10 0.00133924
5 *54:10 *55:8 0.000100805
6 *54:14 *55:12 0
7 *398:B *54:14 1.14452e-05
8 *29:14 *54:14 0
9 *52:8 *54:14 0
10 *53:10 *54:14 0
*RES
1 *422:X *54:10 43.4064 
2 *54:10 *54:14 34.1607 
3 *54:14 *398:C 23 
*END

*D_NET *55 0.00205217
*CONN
*I *396:A1 I *D sky130_fd_sc_hd__mux2_1
*I *423:X O *D sky130_fd_sc_hd__clkbuf_1
*CAP
1 *396:A1 0
2 *423:X 6.63357e-05
3 *55:12 0.000550301
4 *55:8 0.000616637
5 *420:A *55:12 0
6 *421:A *55:12 0
7 *52:8 *55:12 0.00014411
8 *53:10 *55:12 0.000573981
9 *54:10 *55:8 0.000100805
10 *54:14 *55:12 0
*RES
1 *423:X *55:8 39.0979 
2 *55:8 *55:12 28.1743 
3 *55:12 *396:A1 23 
*END

*D_NET *56 0.00350945
*CONN
*I *401:A0 I *D sky130_fd_sc_hd__mux4_1
*I *424:X O *D sky130_fd_sc_hd__clkbuf_1
*CAP
1 *401:A0 0
2 *424:X 0.000100003
3 *56:16 0.00101989
4 *56:8 0.00111989
5 *56:16 *57:12 0.000494583
6 *1:13 *56:16 0
7 *8:19 *56:8 0.000144501
8 *37:12 *56:16 0.000183563
9 *37:20 *56:16 0.000121156
10 *38:10 *56:16 0
11 *41:16 *56:16 0.000325863
12 *45:12 *56:16 0
*RES
1 *424:X *56:8 39.5743 
2 *56:8 *56:16 39.6293 
3 *56:16 *401:A0 23 
*END

*D_NET *57 0.00262853
*CONN
*I *402:A1 I *D sky130_fd_sc_hd__mux4_1
*I *425:X O *D sky130_fd_sc_hd__clkbuf_1
*CAP
1 *402:A1 0
2 *425:X 0.000255975
3 *57:24 0.000194028
4 *57:12 0.000450004
5 *37:20 *57:12 0.000772393
6 *37:20 *57:24 0.000223043
7 *38:10 *57:24 0.000225275
8 *41:16 *57:24 1.32314e-05
9 *56:16 *57:12 0.000494583
*RES
1 *425:X *57:12 49.1236 
2 *57:12 *57:24 49.6814 
3 *57:24 *402:A1 23 
*END
