*SPEF "ieee 1481-1999"
*DESIGN "user_project_wrapper"
*DATE "11:11:11 Fri 11 11, 1111"
*VENDOR "OpenRCX"
*PROGRAM "Parallel Extraction"
*VERSION "1.0"
*DESIGN_FLOW "NAME_SCOPE LOCAL" "PIN_CAP NONE"
*DIVIDER /
*DELIMITER :
*BUS_DELIMITER []
*T_UNIT 1 NS
*C_UNIT 1 PF
*R_UNIT 1 OHM
*L_UNIT 1 HENRY

*NAME_MAP
*1 analog_io[0]
*2 analog_io[10]
*3 analog_io[11]
*4 analog_io[12]
*5 analog_io[13]
*6 analog_io[14]
*7 analog_io[15]
*8 analog_io[16]
*9 analog_io[17]
*10 analog_io[18]
*11 analog_io[19]
*12 analog_io[1]
*13 analog_io[20]
*14 analog_io[21]
*15 analog_io[22]
*16 analog_io[23]
*17 analog_io[24]
*18 analog_io[25]
*19 analog_io[26]
*20 analog_io[27]
*21 analog_io[28]
*22 analog_io[2]
*23 analog_io[3]
*24 analog_io[4]
*25 analog_io[5]
*26 analog_io[6]
*27 analog_io[7]
*28 analog_io[8]
*29 analog_io[9]
*30 io_in[0]
*31 io_in[10]
*32 io_in[11]
*33 io_in[12]
*34 io_in[13]
*35 io_in[14]
*36 io_in[15]
*37 io_in[16]
*38 io_in[17]
*39 io_in[18]
*40 io_in[19]
*41 io_in[1]
*42 io_in[20]
*43 io_in[21]
*44 io_in[22]
*45 io_in[23]
*46 io_in[24]
*47 io_in[25]
*48 io_in[26]
*49 io_in[27]
*50 io_in[28]
*51 io_in[29]
*52 io_in[2]
*53 io_in[30]
*54 io_in[31]
*55 io_in[32]
*56 io_in[33]
*57 io_in[34]
*58 io_in[35]
*59 io_in[36]
*60 io_in[37]
*61 io_in[3]
*62 io_in[4]
*63 io_in[5]
*64 io_in[6]
*65 io_in[7]
*66 io_in[8]
*67 io_in[9]
*68 io_oeb[0]
*69 io_oeb[10]
*70 io_oeb[11]
*71 io_oeb[12]
*72 io_oeb[13]
*73 io_oeb[14]
*74 io_oeb[15]
*75 io_oeb[16]
*76 io_oeb[17]
*77 io_oeb[18]
*78 io_oeb[19]
*79 io_oeb[1]
*80 io_oeb[20]
*81 io_oeb[21]
*82 io_oeb[22]
*83 io_oeb[23]
*84 io_oeb[24]
*85 io_oeb[25]
*86 io_oeb[26]
*87 io_oeb[27]
*88 io_oeb[28]
*89 io_oeb[29]
*90 io_oeb[2]
*91 io_oeb[30]
*92 io_oeb[31]
*93 io_oeb[32]
*94 io_oeb[33]
*95 io_oeb[34]
*96 io_oeb[35]
*97 io_oeb[36]
*98 io_oeb[37]
*99 io_oeb[3]
*100 io_oeb[4]
*101 io_oeb[5]
*102 io_oeb[6]
*103 io_oeb[7]
*104 io_oeb[8]
*105 io_oeb[9]
*106 io_out[0]
*107 io_out[10]
*108 io_out[11]
*109 io_out[12]
*110 io_out[13]
*111 io_out[14]
*112 io_out[15]
*113 io_out[16]
*114 io_out[17]
*115 io_out[18]
*116 io_out[19]
*117 io_out[1]
*118 io_out[20]
*119 io_out[21]
*120 io_out[22]
*121 io_out[23]
*122 io_out[24]
*123 io_out[25]
*124 io_out[26]
*125 io_out[27]
*126 io_out[28]
*127 io_out[29]
*128 io_out[2]
*129 io_out[30]
*130 io_out[31]
*131 io_out[32]
*132 io_out[33]
*133 io_out[34]
*134 io_out[35]
*135 io_out[36]
*136 io_out[37]
*137 io_out[3]
*138 io_out[4]
*139 io_out[5]
*140 io_out[6]
*141 io_out[7]
*142 io_out[8]
*143 io_out[9]
*146 wb_clk_i
*147 wb_rst_i
*148 wbs_ack_o
*149 wbs_adr_i[0]
*150 wbs_adr_i[10]
*151 wbs_adr_i[11]
*152 wbs_adr_i[12]
*153 wbs_adr_i[13]
*154 wbs_adr_i[14]
*155 wbs_adr_i[15]
*156 wbs_adr_i[16]
*157 wbs_adr_i[17]
*158 wbs_adr_i[18]
*159 wbs_adr_i[19]
*160 wbs_adr_i[1]
*161 wbs_adr_i[20]
*162 wbs_adr_i[21]
*163 wbs_adr_i[22]
*164 wbs_adr_i[23]
*165 wbs_adr_i[24]
*166 wbs_adr_i[25]
*167 wbs_adr_i[26]
*168 wbs_adr_i[27]
*169 wbs_adr_i[28]
*170 wbs_adr_i[29]
*171 wbs_adr_i[2]
*172 wbs_adr_i[30]
*173 wbs_adr_i[31]
*174 wbs_adr_i[3]
*175 wbs_adr_i[4]
*176 wbs_adr_i[5]
*177 wbs_adr_i[6]
*178 wbs_adr_i[7]
*179 wbs_adr_i[8]
*180 wbs_adr_i[9]
*181 wbs_cyc_i
*182 wbs_dat_i[0]
*183 wbs_dat_i[10]
*184 wbs_dat_i[11]
*185 wbs_dat_i[12]
*186 wbs_dat_i[13]
*187 wbs_dat_i[14]
*188 wbs_dat_i[15]
*189 wbs_dat_i[16]
*190 wbs_dat_i[17]
*191 wbs_dat_i[18]
*192 wbs_dat_i[19]
*193 wbs_dat_i[1]
*194 wbs_dat_i[20]
*195 wbs_dat_i[21]
*196 wbs_dat_i[22]
*197 wbs_dat_i[23]
*198 wbs_dat_i[24]
*199 wbs_dat_i[25]
*200 wbs_dat_i[26]
*201 wbs_dat_i[27]
*202 wbs_dat_i[28]
*203 wbs_dat_i[29]
*204 wbs_dat_i[2]
*205 wbs_dat_i[30]
*206 wbs_dat_i[31]
*207 wbs_dat_i[3]
*208 wbs_dat_i[4]
*209 wbs_dat_i[5]
*210 wbs_dat_i[6]
*211 wbs_dat_i[7]
*212 wbs_dat_i[8]
*213 wbs_dat_i[9]
*214 wbs_dat_o[0]
*215 wbs_dat_o[10]
*216 wbs_dat_o[11]
*217 wbs_dat_o[12]
*218 wbs_dat_o[13]
*219 wbs_dat_o[14]
*220 wbs_dat_o[15]
*221 wbs_dat_o[16]
*222 wbs_dat_o[17]
*223 wbs_dat_o[18]
*224 wbs_dat_o[19]
*225 wbs_dat_o[1]
*226 wbs_dat_o[20]
*227 wbs_dat_o[21]
*228 wbs_dat_o[22]
*229 wbs_dat_o[23]
*230 wbs_dat_o[24]
*231 wbs_dat_o[25]
*232 wbs_dat_o[26]
*233 wbs_dat_o[27]
*234 wbs_dat_o[28]
*235 wbs_dat_o[29]
*236 wbs_dat_o[2]
*237 wbs_dat_o[30]
*238 wbs_dat_o[31]
*239 wbs_dat_o[3]
*240 wbs_dat_o[4]
*241 wbs_dat_o[5]
*242 wbs_dat_o[6]
*243 wbs_dat_o[7]
*244 wbs_dat_o[8]
*245 wbs_dat_o[9]
*246 wbs_sel_i[0]
*247 wbs_sel_i[1]
*248 wbs_sel_i[2]
*249 wbs_sel_i[3]
*250 wbs_stb_i
*251 wbs_we_i
*252 x1\[0\]
*253 x1\[10\]
*254 x1\[11\]
*255 x1\[12\]
*256 x1\[13\]
*257 x1\[14\]
*258 x1\[15\]
*259 x1\[1\]
*260 x1\[2\]
*261 x1\[3\]
*262 x1\[4\]
*263 x1\[5\]
*264 x1\[6\]
*265 x1\[7\]
*266 x1\[8\]
*267 x1\[9\]
*268 x2\[0\]
*269 x2\[10\]
*270 x2\[11\]
*271 x2\[12\]
*272 x2\[13\]
*273 x2\[14\]
*274 x2\[15\]
*275 x2\[1\]
*276 x2\[2\]
*277 x2\[3\]
*278 x2\[4\]
*279 x2\[5\]
*280 x2\[6\]
*281 x2\[7\]
*282 x2\[8\]
*283 x2\[9\]
*284 x3\[0\]
*285 x3\[10\]
*286 x3\[11\]
*287 x3\[12\]
*288 x3\[13\]
*289 x3\[14\]
*290 x3\[15\]
*291 x3\[1\]
*292 x3\[2\]
*293 x3\[3\]
*294 x3\[4\]
*295 x3\[5\]
*296 x3\[6\]
*297 x3\[7\]
*298 x3\[8\]
*299 x3\[9\]
*300 x4\[0\]
*301 x4\[10\]
*302 x4\[11\]
*303 x4\[12\]
*304 x4\[13\]
*305 x4\[14\]
*306 x4\[15\]
*307 x4\[1\]
*308 x4\[2\]
*309 x4\[3\]
*310 x4\[4\]
*311 x4\[5\]
*312 x4\[6\]
*313 x4\[7\]
*314 x4\[8\]
*315 x4\[9\]
*316 x5\[0\]
*317 x5\[10\]
*318 x5\[11\]
*319 x5\[12\]
*320 x5\[13\]
*321 x5\[14\]
*322 x5\[15\]
*323 x5\[1\]
*324 x5\[2\]
*325 x5\[3\]
*326 x5\[4\]
*327 x5\[5\]
*328 x5\[6\]
*329 x5\[7\]
*330 x5\[8\]
*331 x5\[9\]
*332 mprj1
*333 mprj2
*334 mprj3
*335 mprj4
*336 mprj5
*337 ro1
*338 ro10
*339 ro11
*340 ro12
*341 ro13
*342 ro14
*343 ro15
*344 ro16
*345 ro2
*346 ro3
*347 ro4
*348 ro5
*349 ro6
*350 ro7
*351 ro8
*352 ro9

*PORTS
analog_io[0] I
analog_io[10] I
analog_io[11] I
analog_io[12] I
analog_io[13] I
analog_io[14] I
analog_io[15] I
analog_io[16] I
analog_io[17] I
analog_io[18] I
analog_io[19] I
analog_io[1] I
analog_io[20] I
analog_io[21] I
analog_io[22] I
analog_io[23] I
analog_io[24] I
analog_io[25] I
analog_io[26] I
analog_io[27] I
analog_io[28] I
analog_io[2] I
analog_io[3] I
analog_io[4] I
analog_io[5] I
analog_io[6] I
analog_io[7] I
analog_io[8] I
analog_io[9] I
io_in[0] I
io_in[10] I
io_in[11] I
io_in[12] I
io_in[13] I
io_in[14] I
io_in[15] I
io_in[16] I
io_in[17] I
io_in[18] I
io_in[19] I
io_in[1] I
io_in[20] I
io_in[21] I
io_in[22] I
io_in[23] I
io_in[24] I
io_in[25] I
io_in[26] I
io_in[27] I
io_in[28] I
io_in[29] I
io_in[2] I
io_in[30] I
io_in[31] I
io_in[32] I
io_in[33] I
io_in[34] I
io_in[35] I
io_in[36] I
io_in[37] I
io_in[3] I
io_in[4] I
io_in[5] I
io_in[6] I
io_in[7] I
io_in[8] I
io_in[9] I
io_oeb[0] O
io_oeb[10] O
io_oeb[11] O
io_oeb[12] O
io_oeb[13] O
io_oeb[14] O
io_oeb[15] O
io_oeb[16] O
io_oeb[17] O
io_oeb[18] O
io_oeb[19] O
io_oeb[1] O
io_oeb[20] O
io_oeb[21] O
io_oeb[22] O
io_oeb[23] O
io_oeb[24] O
io_oeb[25] O
io_oeb[26] O
io_oeb[27] O
io_oeb[28] O
io_oeb[29] O
io_oeb[2] O
io_oeb[30] O
io_oeb[31] O
io_oeb[32] O
io_oeb[33] O
io_oeb[34] O
io_oeb[35] O
io_oeb[36] O
io_oeb[37] O
io_oeb[3] O
io_oeb[4] O
io_oeb[5] O
io_oeb[6] O
io_oeb[7] O
io_oeb[8] O
io_oeb[9] O
io_out[0] O
io_out[10] O
io_out[11] O
io_out[12] O
io_out[13] O
io_out[14] O
io_out[15] O
io_out[16] O
io_out[17] O
io_out[18] O
io_out[19] O
io_out[1] O
io_out[20] O
io_out[21] O
io_out[22] O
io_out[23] O
io_out[24] O
io_out[25] O
io_out[26] O
io_out[27] O
io_out[28] O
io_out[29] O
io_out[2] O
io_out[30] O
io_out[31] O
io_out[32] O
io_out[33] O
io_out[34] O
io_out[35] O
io_out[36] O
io_out[37] O
io_out[3] O
io_out[4] O
io_out[5] O
io_out[6] O
io_out[7] O
io_out[8] O
io_out[9] O
wb_clk_i I
wb_rst_i I
wbs_ack_o O
wbs_adr_i[0] I
wbs_adr_i[10] I
wbs_adr_i[11] I
wbs_adr_i[12] I
wbs_adr_i[13] I
wbs_adr_i[14] I
wbs_adr_i[15] I
wbs_adr_i[16] I
wbs_adr_i[17] I
wbs_adr_i[18] I
wbs_adr_i[19] I
wbs_adr_i[1] I
wbs_adr_i[20] I
wbs_adr_i[21] I
wbs_adr_i[22] I
wbs_adr_i[23] I
wbs_adr_i[24] I
wbs_adr_i[25] I
wbs_adr_i[26] I
wbs_adr_i[27] I
wbs_adr_i[28] I
wbs_adr_i[29] I
wbs_adr_i[2] I
wbs_adr_i[30] I
wbs_adr_i[31] I
wbs_adr_i[3] I
wbs_adr_i[4] I
wbs_adr_i[5] I
wbs_adr_i[6] I
wbs_adr_i[7] I
wbs_adr_i[8] I
wbs_adr_i[9] I
wbs_cyc_i I
wbs_dat_i[0] I
wbs_dat_i[10] I
wbs_dat_i[11] I
wbs_dat_i[12] I
wbs_dat_i[13] I
wbs_dat_i[14] I
wbs_dat_i[15] I
wbs_dat_i[16] I
wbs_dat_i[17] I
wbs_dat_i[18] I
wbs_dat_i[19] I
wbs_dat_i[1] I
wbs_dat_i[20] I
wbs_dat_i[21] I
wbs_dat_i[22] I
wbs_dat_i[23] I
wbs_dat_i[24] I
wbs_dat_i[25] I
wbs_dat_i[26] I
wbs_dat_i[27] I
wbs_dat_i[28] I
wbs_dat_i[29] I
wbs_dat_i[2] I
wbs_dat_i[30] I
wbs_dat_i[31] I
wbs_dat_i[3] I
wbs_dat_i[4] I
wbs_dat_i[5] I
wbs_dat_i[6] I
wbs_dat_i[7] I
wbs_dat_i[8] I
wbs_dat_i[9] I
wbs_dat_o[0] O
wbs_dat_o[10] O
wbs_dat_o[11] O
wbs_dat_o[12] O
wbs_dat_o[13] O
wbs_dat_o[14] O
wbs_dat_o[15] O
wbs_dat_o[16] O
wbs_dat_o[17] O
wbs_dat_o[18] O
wbs_dat_o[19] O
wbs_dat_o[1] O
wbs_dat_o[20] O
wbs_dat_o[21] O
wbs_dat_o[22] O
wbs_dat_o[23] O
wbs_dat_o[24] O
wbs_dat_o[25] O
wbs_dat_o[26] O
wbs_dat_o[27] O
wbs_dat_o[28] O
wbs_dat_o[29] O
wbs_dat_o[2] O
wbs_dat_o[30] O
wbs_dat_o[31] O
wbs_dat_o[3] O
wbs_dat_o[4] O
wbs_dat_o[5] O
wbs_dat_o[6] O
wbs_dat_o[7] O
wbs_dat_o[8] O
wbs_dat_o[9] O
wbs_sel_i[0] I
wbs_sel_i[1] I
wbs_sel_i[2] I
wbs_sel_i[3] I
wbs_stb_i I
wbs_we_i I

*D_NET *30 0.388353
*CONN
*P io_in[0] I
*I *337:s1 I *D sky130_osu_ring_oscillator_mpr2aa_8_b0r1
*I *345:s1 I *D sky130_osu_ring_oscillator_mpr2at_8_b0r1
*I *346:s1 I *D sky130_osu_ring_oscillator_mpr2ca_8_b0r1
*I *347:s1 I *D sky130_osu_ring_oscillator_mpr2ct_8_b0r1
*I *348:s1 I *D sky130_osu_ring_oscillator_mpr2ea_8_b0r1
*I *349:s1 I *D sky130_osu_ring_oscillator_mpr2et_8_b0r1
*I *350:s1 I *D sky130_osu_ring_oscillator_mpr2xa_8_b0r1
*I *351:s1 I *D sky130_osu_ring_oscillator_mpr2ya_8_b0r1
*I *352:s1 I *D sky130_osu_ring_oscillator_mpr2aa_8_b0r2
*I *338:s1 I *D sky130_osu_ring_oscillator_mpr2at_8_b0r2
*I *339:s1 I *D sky130_osu_ring_oscillator_mpr2ca_8_b0r2
*I *340:s1 I *D sky130_osu_ring_oscillator_mpr2ct_8_b0r2
*I *341:s1 I *D sky130_osu_ring_oscillator_mpr2ea_8_b0r2
*I *342:s1 I *D sky130_osu_ring_oscillator_mpr2et_8_b0r2
*I *343:s1 I *D sky130_osu_ring_oscillator_mpr2xa_8_b0r2
*I *344:s1 I *D sky130_osu_ring_oscillator_mpr2ya_8_b0r2
*CAP
1 io_in[0] 0.0726609
2 *337:s1 0.00490595
3 *345:s1 0.000183012
4 *346:s1 0.000223215
5 *347:s1 0.000253727
6 *348:s1 0.000254232
7 *349:s1 0.000125054
8 *350:s1 0.000253823
9 *351:s1 9.3872e-05
10 *352:s1 0.000251722
11 *338:s1 0.000271677
12 *339:s1 0.000165731
13 *340:s1 0.000143903
14 *341:s1 0.000180557
15 *342:s1 0.000176154
16 *343:s1 8.57047e-05
17 *344:s1 0.000127696
18 *30:277 0.0101721
19 *30:253 0.0102201
20 *30:235 0.0105285
21 *30:211 0.0100756
22 *30:197 0.0101737
23 *30:173 0.010347
24 *30:159 0.00970971
25 *30:139 0.00964893
26 *30:122 0.00969998
27 *30:108 0.00987375
28 *30:93 0.00987771
29 *30:73 0.0101873
30 *30:53 0.0102256
31 *30:37 0.0102836
32 *30:13 0.00556197
33 *30:9 0.0444543
34 *30:7 0.0440073
35 *30:5 0.0726609
36 *337:s1 *252:14 0
37 *348:s1 *262:8 0
38 *350:s1 *264:10 0
39 *352:s1 *266:8 0
40 *30:9 *258:12 0.00028855
41 *30:235 *259:18 0
42 *30:253 *259:18 0
43 *30:277 *252:14 0
44 *30:277 *259:18 0
*RES
1 io_in[0] *30:5 269.134 
2 *30:5 *30:7 8 
3 *30:7 *30:9 171.644 
4 *30:9 *30:13 1.58667 
5 *30:13 *344:s1 17.7975 
6 *30:13 *30:37 27.2248 
7 *30:37 *343:s1 9.79696 
8 *30:37 *30:53 27.2435 
9 *30:53 *342:s1 17.8989 
10 *30:53 *30:73 19.3424 
11 *30:73 *341:s1 18.6571 
12 *30:73 *30:93 19.2528 
13 *30:93 *340:s1 16.5096 
14 *30:93 *30:108 18.3344 
15 *30:108 *339:s1 18.0957 
16 *30:108 *30:122 19.096 
17 *30:122 *338:s1 33.3343 
18 *30:122 *30:139 17.192 
19 *30:139 *352:s1 20.9098 
20 *30:139 *30:159 19.3499 
21 *30:159 *351:s1 16.9482 
22 *30:159 *30:173 18.0805 
23 *30:173 *350:s1 20.915 
24 *30:173 *30:197 20.7835 
25 *30:197 *349:s1 16.9616 
26 *30:197 *30:211 17.5728 
27 *30:211 *348:s1 20.8684 
28 *30:211 *30:235 20.0219 
29 *30:235 *347:s1 19.906 
30 *30:235 *30:253 18.9691 
31 *30:253 *346:s1 19.8793 
32 *30:253 *30:277 19.6635 
33 *30:277 *345:s1 18.6571 
34 *30:277 *337:s1 34.1869 
*END

*D_NET *41 0.410681
*CONN
*P io_in[1] I
*I *338:s2 I *D sky130_osu_ring_oscillator_mpr2at_8_b0r2
*I *337:s2 I *D sky130_osu_ring_oscillator_mpr2aa_8_b0r1
*I *345:s2 I *D sky130_osu_ring_oscillator_mpr2at_8_b0r1
*I *346:s2 I *D sky130_osu_ring_oscillator_mpr2ca_8_b0r1
*I *347:s2 I *D sky130_osu_ring_oscillator_mpr2ct_8_b0r1
*I *348:s2 I *D sky130_osu_ring_oscillator_mpr2ea_8_b0r1
*I *349:s2 I *D sky130_osu_ring_oscillator_mpr2et_8_b0r1
*I *350:s2 I *D sky130_osu_ring_oscillator_mpr2xa_8_b0r1
*I *351:s2 I *D sky130_osu_ring_oscillator_mpr2ya_8_b0r1
*I *352:s2 I *D sky130_osu_ring_oscillator_mpr2aa_8_b0r2
*I *339:s2 I *D sky130_osu_ring_oscillator_mpr2ca_8_b0r2
*I *340:s2 I *D sky130_osu_ring_oscillator_mpr2ct_8_b0r2
*I *341:s2 I *D sky130_osu_ring_oscillator_mpr2ea_8_b0r2
*I *342:s2 I *D sky130_osu_ring_oscillator_mpr2et_8_b0r2
*I *343:s2 I *D sky130_osu_ring_oscillator_mpr2xa_8_b0r2
*I *344:s2 I *D sky130_osu_ring_oscillator_mpr2ya_8_b0r2
*CAP
1 io_in[1] 0.0720259
2 *338:s2 8.22813e-05
3 *337:s2 0.00574478
4 *345:s2 0.00708255
5 *346:s2 0.000566329
6 *347:s2 0.000356081
7 *348:s2 0.000133155
8 *349:s2 0.000146903
9 *350:s2 0.000166556
10 *351:s2 9.90009e-05
11 *352:s2 0.000170307
12 *339:s2 0.000455678
13 *340:s2 0.000356963
14 *341:s2 0.000225825
15 *342:s2 0.0011712
16 *343:s2 0.000198313
17 *344:s2 0.000164597
18 *41:285 0.00643719
19 *41:248 0.0127193
20 *41:237 0.013101
21 *41:219 0.0129191
22 *41:194 0.0116411
23 *41:176 0.0110782
24 *41:161 0.0110152
25 *41:141 0.0117788
26 *41:131 0.0125374
27 *41:116 0.0128085
28 *41:105 0.0125864
29 *41:83 0.0123668
30 *41:49 0.0128931
31 *41:31 0.0116857
32 *41:13 0.00596752
33 *41:9 0.0382565
34 *41:7 0.0379417
35 *41:5 0.0720259
36 *337:s2 *252:14 0
37 *345:s2 *275:16 0.000406886
38 *345:s2 *275:18 0
39 *346:s2 *276:12 0
40 *348:s2 *278:12 0
41 *41:105 *270:12 0.000502043
42 *41:131 *283:10 0.000236474
43 *41:237 *275:18 0
44 *41:237 *277:12 0.000629254
45 *41:248 *275:18 0
*RES
1 io_in[1] *41:5 266.558 
2 *41:5 *41:7 8 
3 *41:7 *41:9 134.579 
4 *41:9 *41:13 1.07893 
5 *41:13 *344:s2 18.0698 
6 *41:13 *41:31 20.1488 
7 *41:31 *343:s2 17.9848 
8 *41:31 *41:49 20.9739 
9 *41:49 *342:s2 44.9985 
10 *41:49 *41:83 25.3395 
11 *41:83 *341:s2 27.5779 
12 *41:83 *41:105 27.3293 
13 *41:105 *340:s2 16.756 
14 *41:105 *41:116 18.7152 
15 *41:116 *339:s2 16.9651 
16 *41:116 *41:131 27.5869 
17 *41:131 *41:141 25.9555 
18 *41:141 *352:s2 18.1993 
19 *41:141 *41:161 19.3797 
20 *41:161 *351:s2 16.2875 
21 *41:161 *41:176 19.6411 
22 *41:176 *350:s2 17.6896 
23 *41:176 *41:194 19.768 
24 *41:194 *349:s2 32.6659 
25 *41:194 *41:219 26.2093 
26 *41:219 *348:s2 25.61 
27 *41:219 *41:237 28.7741 
28 *41:237 *347:s2 16.7541 
29 *41:237 *41:248 18.0805 
30 *41:248 *346:s2 18.7856 
31 *41:248 *345:s2 35.8436 
32 *345:s2 *41:285 45.0334 
33 *41:285 *337:s2 48.4901 
34 *41:131 *338:s2 24.7089 
*END

*D_NET *52 0.452106
*CONN
*P io_in[2] I
*I *337:s3 I *D sky130_osu_ring_oscillator_mpr2aa_8_b0r1
*I *345:s3 I *D sky130_osu_ring_oscillator_mpr2at_8_b0r1
*I *346:s3 I *D sky130_osu_ring_oscillator_mpr2ca_8_b0r1
*I *347:s3 I *D sky130_osu_ring_oscillator_mpr2ct_8_b0r1
*I *348:s3 I *D sky130_osu_ring_oscillator_mpr2ea_8_b0r1
*I *349:s3 I *D sky130_osu_ring_oscillator_mpr2et_8_b0r1
*I *350:s3 I *D sky130_osu_ring_oscillator_mpr2xa_8_b0r1
*I *351:s3 I *D sky130_osu_ring_oscillator_mpr2ya_8_b0r1
*I *352:s3 I *D sky130_osu_ring_oscillator_mpr2aa_8_b0r2
*I *338:s3 I *D sky130_osu_ring_oscillator_mpr2at_8_b0r2
*I *339:s3 I *D sky130_osu_ring_oscillator_mpr2ca_8_b0r2
*I *340:s3 I *D sky130_osu_ring_oscillator_mpr2ct_8_b0r2
*I *341:s3 I *D sky130_osu_ring_oscillator_mpr2ea_8_b0r2
*I *342:s3 I *D sky130_osu_ring_oscillator_mpr2et_8_b0r2
*I *343:s3 I *D sky130_osu_ring_oscillator_mpr2xa_8_b0r2
*I *344:s3 I *D sky130_osu_ring_oscillator_mpr2ya_8_b0r2
*CAP
1 io_in[2] 0.000801604
2 *337:s3 0.00575949
3 *345:s3 0.000403114
4 *346:s3 0.000206163
5 *347:s3 0.000210407
6 *348:s3 0.000233816
7 *349:s3 0.000128379
8 *350:s3 0.000210974
9 *351:s3 4.58322e-05
10 *352:s3 0.000201395
11 *338:s3 7.55755e-05
12 *339:s3 7.14792e-05
13 *340:s3 4.67136e-05
14 *341:s3 0.000193029
15 *342:s3 0.000117432
16 *343:s3 0.000128715
17 *344:s3 0.000526901
18 *52:272 0.0135304
19 *52:251 0.0121768
20 *52:235 0.0105957
21 *52:211 0.0111665
22 *52:190 0.0107878
23 *52:172 0.0102093
24 *52:161 0.00970704
25 *52:141 0.0100942
26 *52:126 0.0100162
27 *52:115 0.0102456
28 *52:104 0.0102876
29 *52:86 0.0110859
30 *52:65 0.0113606
31 *52:43 0.0100586
32 *52:15 0.00481999
33 *52:13 0.0442485
34 *52:11 0.0442485
35 *52:9 0.019323
36 *52:7 0.0201246
37 *348:s3 *294:10 0
38 *350:s3 *296:12 0
39 *52:9 *61:9 0.0145491
40 *52:13 *344:s4 0.000524347
41 *52:13 *61:13 0.141151
42 *52:161 *296:16 0.000303667
43 *52:172 *296:16 0
44 *52:190 *275:18 0.000578207
45 *52:211 *275:18 0.000112875
46 *52:235 *275:18 0.000459943
47 *52:251 *275:18 0.000975396
48 *52:272 *275:18 4.04571e-06
*RES
1 io_in[2] *52:7 11.0763 
2 *52:7 *52:9 555.122 
3 *52:9 *52:11 8 
4 *52:11 *52:13 260.919 
5 *52:13 *52:15 8 
6 *52:15 *344:s3 41.9314 
7 *52:15 *52:43 38.3782 
8 *52:43 *343:s3 17.5791 
9 *52:43 *52:65 19.544 
10 *52:65 *342:s3 32.2486 
11 *52:65 *52:86 19.3797 
12 *52:86 *341:s3 19.4961 
13 *52:86 *52:104 18.7152 
14 *52:104 *340:s3 16.0989 
15 *52:104 *52:115 18.7152 
16 *52:115 *339:s3 16.182 
17 *52:115 *52:126 18.4613 
18 *52:126 *338:s3 31.3993 
19 *52:126 *52:141 17.8267 
20 *52:141 *352:s3 19.4029 
21 *52:141 *52:161 19.8949 
22 *52:161 *351:s3 16.0971 
23 *52:161 *52:172 18.0805 
24 *52:172 *350:s3 19.6929 
25 *52:172 *52:190 20.5296 
26 *52:190 *349:s3 32.58 
27 *52:190 *52:211 18.1104 
28 *52:211 *348:s3 20.4023 
29 *52:211 *52:235 20.1413 
30 *52:235 *347:s3 18.9087 
31 *52:235 *52:251 18.5883 
32 *52:251 *346:s3 16.5525 
33 *52:251 *52:272 19.8352 
34 *52:272 *345:s3 19.597 
35 *52:272 *337:s3 34.5108 
*END

*D_NET *61 0.522128
*CONN
*P io_in[3] I
*I *347:s4 I *D sky130_osu_ring_oscillator_mpr2ct_8_b0r1
*I *337:s4 I *D sky130_osu_ring_oscillator_mpr2aa_8_b0r1
*I *345:s4 I *D sky130_osu_ring_oscillator_mpr2at_8_b0r1
*I *346:s4 I *D sky130_osu_ring_oscillator_mpr2ca_8_b0r1
*I *348:s4 I *D sky130_osu_ring_oscillator_mpr2ea_8_b0r1
*I *349:s4 I *D sky130_osu_ring_oscillator_mpr2et_8_b0r1
*I *350:s4 I *D sky130_osu_ring_oscillator_mpr2xa_8_b0r1
*I *351:s4 I *D sky130_osu_ring_oscillator_mpr2ya_8_b0r1
*I *352:s4 I *D sky130_osu_ring_oscillator_mpr2aa_8_b0r2
*I *338:s4 I *D sky130_osu_ring_oscillator_mpr2at_8_b0r2
*I *339:s4 I *D sky130_osu_ring_oscillator_mpr2ca_8_b0r2
*I *340:s4 I *D sky130_osu_ring_oscillator_mpr2ct_8_b0r2
*I *341:s4 I *D sky130_osu_ring_oscillator_mpr2ea_8_b0r2
*I *342:s4 I *D sky130_osu_ring_oscillator_mpr2et_8_b0r2
*I *343:s4 I *D sky130_osu_ring_oscillator_mpr2xa_8_b0r2
*I *344:s4 I *D sky130_osu_ring_oscillator_mpr2ya_8_b0r2
*CAP
1 io_in[3] 0.000768792
2 *347:s4 0.000240534
3 *337:s4 0.00541495
4 *345:s4 9.84608e-05
5 *346:s4 4.67136e-05
6 *348:s4 0.000202952
7 *349:s4 0.000228571
8 *350:s4 0.000304184
9 *351:s4 0.000225467
10 *352:s4 0.000214293
11 *338:s4 0.000117917
12 *339:s4 3.82566e-05
13 *340:s4 4.67136e-05
14 *341:s4 0.000214079
15 *342:s4 0.00024426
16 *343:s4 0.000269974
17 *344:s4 0.000726286
18 *61:238 0.0104055
19 *61:227 0.00947199
20 *61:225 0.0102598
21 *61:203 0.0101115
22 *61:188 0.00999056
23 *61:164 0.0100916
24 *61:149 0.00808261
25 *61:133 0.00673344
26 *61:112 0.00646218
27 *61:101 0.00793543
28 *61:90 0.00972495
29 *61:70 0.0100738
30 *61:49 0.0101375
31 *61:38 0.0094226
32 *61:13 0.0221407
33 *61:11 0.0173106
34 *61:9 0.00834276
35 *61:7 0.00911155
36 *337:s4 *300:8 0.000450986
37 *339:s4 *313:26 2.32858e-05
38 *348:s4 *310:16 0
39 *350:s4 *312:8 0
40 *352:s4 *334:data_in[6] 0
41 *61:9 *62:9 0.00596236
42 *61:13 *62:13 0.140212
43 *61:38 *305:8 0.000303277
44 *61:70 *303:12 0.000228412
45 *61:101 *62:101 0
46 *61:101 *62:123 0
47 *61:112 *62:123 0
48 *61:112 *310:18 0
49 *61:112 *313:24 0.00785892
50 *61:133 *310:18 0
51 *61:133 *313:24 0.00830613
52 *61:133 *314:8 0.000461664
53 *61:149 *291:18 0
54 *61:149 *310:18 0
55 *61:149 *313:12 0.000441668
56 *61:149 *313:20 0.00484163
57 *61:149 *313:24 0.000847825
58 *61:164 *291:18 0.000288753
59 *61:164 *310:18 0
60 *61:188 *291:18 0.00018776
61 *61:188 *310:18 0
62 *61:203 *291:18 0
63 *61:203 *310:16 0.000278116
64 *61:203 *310:18 0
65 *61:225 *291:18 0
66 *61:227 *291:18 0
67 *61:238 *291:18 0
68 *52:9 *61:9 0.0145491
69 *52:13 *344:s4 0.000524347
70 *52:13 *61:13 0.141151
*RES
1 io_in[3] *61:7 10.9045 
2 *61:7 *61:9 349.471 
3 *61:9 *61:11 8 
4 *61:11 *61:13 257.355 
5 *61:13 *344:s4 36.2826 
6 *61:13 *61:38 24.4304 
7 *61:38 *343:s4 16.9436 
8 *61:38 *61:49 18.8421 
9 *61:49 *342:s4 32.7638 
10 *61:49 *61:70 19.3797 
11 *61:70 *341:s4 19.9466 
12 *61:70 *61:90 18.7152 
13 *61:90 *340:s4 16.0989 
14 *61:90 *61:101 18.7152 
15 *61:101 *339:s4 16.0971 
16 *61:101 *61:112 18.4613 
17 *61:112 *338:s4 32.4971 
18 *61:112 *61:133 27.3685 
19 *61:133 *352:s4 10.081 
20 *61:133 *61:149 25.9536 
21 *61:149 *351:s4 16.7728 
22 *61:149 *61:164 18.536 
23 *61:164 *350:s4 21.9507 
24 *61:164 *61:188 20.3579 
25 *61:188 *349:s4 32.4738 
26 *61:188 *61:203 17.8267 
27 *61:203 *348:s4 19.5479 
28 *61:203 *61:225 20.7163 
29 *61:225 *61:227 17.6325 
30 *61:227 *346:s4 16.0989 
31 *61:227 *61:238 18.9691 
32 *61:238 *345:s4 32.1243 
33 *61:238 *337:s4 37.292 
34 *61:225 *347:s4 17.1489 
*END

*D_NET *62 0.417022
*CONN
*P io_in[4] I
*I *342:s5 I *D sky130_osu_ring_oscillator_mpr2et_8_b0r2
*I *345:s5 I *D sky130_osu_ring_oscillator_mpr2at_8_b0r1
*I *337:s5 I *D sky130_osu_ring_oscillator_mpr2aa_8_b0r1
*I *346:s5 I *D sky130_osu_ring_oscillator_mpr2ca_8_b0r1
*I *347:s5 I *D sky130_osu_ring_oscillator_mpr2ct_8_b0r1
*I *348:s5 I *D sky130_osu_ring_oscillator_mpr2ea_8_b0r1
*I *349:s5 I *D sky130_osu_ring_oscillator_mpr2et_8_b0r1
*I *350:s5 I *D sky130_osu_ring_oscillator_mpr2xa_8_b0r1
*I *351:s5 I *D sky130_osu_ring_oscillator_mpr2ya_8_b0r1
*I *352:s5 I *D sky130_osu_ring_oscillator_mpr2aa_8_b0r2
*I *338:s5 I *D sky130_osu_ring_oscillator_mpr2at_8_b0r2
*I *339:s5 I *D sky130_osu_ring_oscillator_mpr2ca_8_b0r2
*I *340:s5 I *D sky130_osu_ring_oscillator_mpr2ct_8_b0r2
*I *341:s5 I *D sky130_osu_ring_oscillator_mpr2ea_8_b0r2
*I *343:s5 I *D sky130_osu_ring_oscillator_mpr2xa_8_b0r2
*I *344:s5 I *D sky130_osu_ring_oscillator_mpr2ya_8_b0r2
*CAP
1 io_in[4] 0.000724043
2 *342:s5 0.00113739
3 *345:s5 0.000208855
4 *337:s5 0.0057183
5 *346:s5 0.000129255
6 *347:s5 0.000182291
7 *348:s5 0.000255139
8 *349:s5 0.000429945
9 *350:s5 0.000244094
10 *351:s5 0.00015582
11 *352:s5 0.000145592
12 *338:s5 0.000157782
13 *339:s5 0.00012329
14 *340:s5 0.000233402
15 *341:s5 0.000209358
16 *343:s5 0.000198958
17 *344:s5 0.000617988
18 *62:316 7.03209e-06
19 *62:282 0.0109658
20 *62:264 0.00992096
21 *62:250 0.0101825
22 *62:230 0.0100957
23 *62:207 0.00897128
24 *62:179 0.00688425
25 *62:165 0.00593341
26 *62:151 0.00589514
27 *62:135 0.00113636
28 *62:123 0.00639067
29 *62:101 0.00750292
30 *62:82 0.00991971
31 *62:66 0.00974234
32 *62:58 0.0113933
33 *62:43 0.0101856
34 *62:15 0.00482011
35 *62:13 0.0429609
36 *62:11 0.0429609
37 *62:9 0.00427309
38 *62:7 0.00499713
39 *339:s5 *313:26 1.40476e-05
40 *62:58 *304:8 0.000322218
41 *62:101 *315:16 0.000616692
42 *62:123 *310:18 0
43 *62:123 *311:14 0.00768419
44 *62:123 *315:16 0.00560868
45 *62:151 *310:18 0.000281766
46 *62:151 *311:14 0.00602592
47 *62:165 *310:18 0.000935847
48 *62:165 *311:14 0.00311191
49 *62:179 *310:18 0.000975255
50 *62:179 *311:14 0.00322976
51 *62:207 *310:18 0.00018776
52 *62:207 *311:14 0.00584315
53 *62:230 *310:18 0
54 *61:9 *62:9 0.00596236
55 *61:13 *62:13 0.140212
56 *61:101 *62:101 0
57 *61:101 *62:123 0
58 *61:112 *62:123 0
*RES
1 io_in[4] *62:7 10.7328 
2 *62:7 *62:9 143.819 
3 *62:9 *62:11 8 
4 *62:11 *62:13 255.595 
5 *62:13 *62:15 8 
6 *62:15 *344:s5 43.485 
7 *62:15 *62:43 37.1899 
8 *62:43 *343:s5 16.6711 
9 *62:43 *62:58 29.616 
10 *62:58 *62:66 25.6923 
11 *62:66 *341:s5 19.3407 
12 *62:66 *62:82 18.8421 
13 *62:82 *340:s5 16.8531 
14 *62:82 *62:101 19.432 
15 *62:101 *339:s5 17.7457 
16 *62:101 *62:123 37.1195 
17 *62:123 *62:135 41.8196 
18 *62:135 *338:s5 18.3971 
19 *62:123 *62:151 17.2667 
20 *62:151 *352:s5 18.1289 
21 *62:151 *62:165 18.2075 
22 *62:165 *351:s5 16.975 
23 *62:165 *62:179 18.0805 
24 *62:179 *350:s5 34.9518 
25 *62:179 *62:207 20.6416 
26 *62:207 *349:s5 33.2466 
27 *62:207 *62:230 18.5659 
28 *62:230 *348:s5 20.8891 
29 *62:230 *62:250 19.4768 
30 *62:250 *347:s5 18.4737 
31 *62:250 *62:264 18.3344 
32 *62:264 *346:s5 17.58 
33 *62:264 *62:282 19.5963 
34 *62:282 *337:s5 38.6052 
35 *62:282 *345:s5 18.7299 
36 *345:s5 *62:316 0.321071 
37 *62:58 *342:s5 38.4203 
*END

*D_NET *63 0.300036
*CONN
*P io_in[5] I
*I *337:start I *D sky130_osu_ring_oscillator_mpr2aa_8_b0r1
*I *345:start I *D sky130_osu_ring_oscillator_mpr2at_8_b0r1
*I *346:start I *D sky130_osu_ring_oscillator_mpr2ca_8_b0r1
*I *347:start I *D sky130_osu_ring_oscillator_mpr2ct_8_b0r1
*I *348:start I *D sky130_osu_ring_oscillator_mpr2ea_8_b0r1
*I *349:start I *D sky130_osu_ring_oscillator_mpr2et_8_b0r1
*I *350:start I *D sky130_osu_ring_oscillator_mpr2xa_8_b0r1
*I *351:start I *D sky130_osu_ring_oscillator_mpr2ya_8_b0r1
*I *352:start I *D sky130_osu_ring_oscillator_mpr2aa_8_b0r2
*I *338:start I *D sky130_osu_ring_oscillator_mpr2at_8_b0r2
*I *339:start I *D sky130_osu_ring_oscillator_mpr2ca_8_b0r2
*I *340:start I *D sky130_osu_ring_oscillator_mpr2ct_8_b0r2
*I *341:start I *D sky130_osu_ring_oscillator_mpr2ea_8_b0r2
*I *342:start I *D sky130_osu_ring_oscillator_mpr2et_8_b0r2
*I *343:start I *D sky130_osu_ring_oscillator_mpr2xa_8_b0r2
*I *344:start I *D sky130_osu_ring_oscillator_mpr2ya_8_b0r2
*CAP
1 io_in[5] 0.000987352
2 *337:start 0.000651101
3 *345:start 0.000632511
4 *346:start 0.000575762
5 *347:start 0.000579186
6 *348:start 0.000550051
7 *349:start 0.000590438
8 *350:start 0.000662842
9 *351:start 0.000644252
10 *352:start 0.000579186
11 *338:start 0.000606093
12 *339:start 0.00066844
13 *340:start 0.000635446
14 *341:start 0.000637403
15 *342:start 0.000639115
16 *343:start 0.000624683
17 *344:start 0.00061661
18 *63:211 0.00506445
19 *63:199 0.00963061
20 *63:186 0.00969898
21 *63:173 0.00964545
22 *63:161 0.00962706
23 *63:149 0.00979324
24 *63:135 0.00988322
25 *63:121 0.0096965
26 *63:116 0
27 *63:109 0.00962026
28 *63:95 0.00963676
29 *63:77 0.0096991
30 *63:65 0.00971239
31 *63:53 0.00971434
32 *63:41 0.00973148
33 *63:29 0.00633893
34 *63:17 0.00397295
35 *63:15 0.00453382
36 *63:13 0.0710845
37 *63:11 0.0720718
*RES
1 io_in[5] *63:11 29.3003 
2 *63:11 *63:13 1504.23 
3 *63:13 *63:15 15 
4 *63:15 *63:17 76.56 
5 *63:17 *344:start 28.7646 
6 *63:15 *63:29 26.5557 
7 *63:29 *343:start 28.0189 
8 *63:29 *63:41 104.027 
9 *63:41 *342:start 28.3245 
10 *63:41 *63:53 103.675 
11 *63:53 *341:start 28.2882 
12 *63:53 *63:65 103.675 
13 *63:65 *340:start 28.2468 
14 *63:65 *63:77 103.675 
15 *63:77 *339:start 30.0696 
16 *63:77 *63:95 102.619 
17 *63:95 *338:start 27.7704 
18 *63:95 *63:109 103.675 
19 *63:109 *352:start 27.0557 
20 *352:start *63:116 0.156154 
21 *63:109 *63:121 102.619 
22 *63:121 *351:start 28.4332 
23 *63:121 *63:135 103.323 
24 *63:135 *350:start 28.8268 
25 *63:135 *63:149 105.436 
26 *63:149 *349:start 27.2939 
27 *63:149 *63:161 103.675 
28 *63:161 *348:start 27.2525 
29 *63:161 *63:173 103.675 
30 *63:173 *347:start 27.0557 
31 *63:173 *63:186 103.675 
32 *63:186 *346:start 27.0557 
33 *63:186 *63:199 104.731 
34 *63:199 *345:start 28.1846 
35 *63:199 *63:211 101.21 
36 *63:211 *337:start 28.5782 
*END

*D_NET *64 0.113397
*CONN
*P io_in[6] I
*I *335:select[0] I *D mux16x1_project
*I *334:select[0] I *D mux16x1_project
*I *333:select[0] I *D mux16x1_project
*I *332:select[0] I *D mux16x1_project
*I *336:select[0] I *D mux16x1_project
*CAP
1 io_in[6] 0.000801604
2 *335:select[0] 8.66535e-05
3 *334:select[0] 8.66535e-05
4 *333:select[0] 8.66535e-05
5 *332:select[0] 0.000128392
6 *336:select[0] 0.000479636
7 *64:59 0.00428045
8 *64:57 0.00420015
9 *64:55 0.00493925
10 *64:53 0.00669553
11 *64:49 0.00390243
12 *64:47 0.0022328
13 *64:45 0.00524412
14 *64:43 0.00668925
15 *64:39 0.00360008
16 *64:37 0.0022416
17 *64:35 0.00553186
18 *64:33 0.00668068
19 *64:29 0.00768635
20 *64:27 0.00754347
21 *64:15 0.00144702
22 *64:13 0.0148993
23 *64:11 0.0148993
24 *64:9 0.004106
25 *64:7 0.00490761
26 *64:13 *336:select[1] 0
27 *64:13 *66:21 0
*RES
1 io_in[6] *64:7 11.0763 
2 *64:7 *64:9 93.815 
3 *64:9 *64:11 8 
4 *64:11 *64:13 55.5259 
5 *64:13 *64:15 8 
6 *64:15 *336:select[0] 11.2789 
7 *64:15 *64:27 22.3921 
8 *64:27 *64:29 150.22 
9 *64:29 *64:33 25.81 
10 *64:33 *64:35 125.653 
11 *64:35 *64:37 1.09786 
12 *64:37 *64:39 50.17 
13 *64:39 *64:43 32.77 
14 *64:43 *64:45 118.693 
15 *64:45 *64:47 1.09786 
16 *64:47 *64:49 50.17 
17 *64:49 *64:53 39.73 
18 *64:53 *64:55 111.733 
19 *64:55 *64:57 1.09786 
20 *64:57 *64:59 95.6171 
21 *64:59 *332:select[0] 2.93107 
22 *64:53 *333:select[0] 1.97821 
23 *64:43 *334:select[0] 1.97821 
24 *64:33 *335:select[0] 1.97821 
*END

*D_NET *65 0.110856
*CONN
*P io_in[7] I
*I *336:select[1] I *D mux16x1_project
*I *335:select[1] I *D mux16x1_project
*I *332:select[1] I *D mux16x1_project
*I *333:select[1] I *D mux16x1_project
*I *334:select[1] I *D mux16x1_project
*CAP
1 io_in[7] 0.00162898
2 *336:select[1] 0.000806109
3 *335:select[1] 0.000102576
4 *332:select[1] 0
5 *333:select[1] 0.00049526
6 *334:select[1] 7.1637e-05
7 *65:67 0.00988911
8 *65:50 0.00913053
9 *65:32 0.0198621
10 *65:21 0.0198702
11 *65:15 0.00986091
12 *65:13 0.0233944
13 *65:11 0.0157444
14 *65:13 *335:select[2] 0
15 *64:13 *336:select[1] 0
*RES
1 io_in[7] *65:11 37.6186 
2 *65:11 *65:13 52.22 
3 *65:13 *65:15 0.614133 
4 *65:15 *65:21 44.6707 
5 *65:21 *334:select[1] 16.1848 
6 *65:21 *65:32 39.6592 
7 *65:32 *333:select[1] 25.413 
8 *65:32 *65:50 43.2744 
9 *65:50 *332:select[1] 8 