*SPEF "ieee 1481-1999"
*DESIGN "user_project_wrapper"
*DATE "11:11:11 Fri 11 11, 1111"
*VENDOR "OpenRCX"
*PROGRAM "Parallel Extraction"
*VERSION "1.0"
*DESIGN_FLOW "NAME_SCOPE LOCAL" "PIN_CAP NONE"
*DIVIDER /
*DELIMITER :
*BUS_DELIMITER []
*T_UNIT 1 NS
*C_UNIT 1 PF
*R_UNIT 1 OHM
*L_UNIT 1 HENRY

*NAME_MAP
*1 analog_io[0]
*2 analog_io[10]
*3 analog_io[11]
*4 analog_io[12]
*5 analog_io[13]
*6 analog_io[14]
*7 analog_io[15]
*8 analog_io[16]
*9 analog_io[17]
*10 analog_io[18]
*11 analog_io[19]
*12 analog_io[1]
*13 analog_io[20]
*14 analog_io[21]
*15 analog_io[22]
*16 analog_io[23]
*17 analog_io[24]
*18 analog_io[25]
*19 analog_io[26]
*20 analog_io[27]
*21 analog_io[28]
*22 analog_io[2]
*23 analog_io[3]
*24 analog_io[4]
*25 analog_io[5]
*26 analog_io[6]
*27 analog_io[7]
*28 analog_io[8]
*29 analog_io[9]
*30 io_in[0]
*31 io_in[10]
*32 io_in[11]
*33 io_in[12]
*34 io_in[13]
*35 io_in[14]
*36 io_in[15]
*37 io_in[16]
*38 io_in[17]
*39 io_in[18]
*40 io_in[19]
*41 io_in[1]
*42 io_in[20]
*43 io_in[21]
*44 io_in[22]
*45 io_in[23]
*46 io_in[24]
*47 io_in[25]
*48 io_in[26]
*49 io_in[27]
*50 io_in[28]
*51 io_in[29]
*52 io_in[2]
*53 io_in[30]
*54 io_in[31]
*55 io_in[32]
*56 io_in[33]
*57 io_in[34]
*58 io_in[35]
*59 io_in[36]
*60 io_in[37]
*61 io_in[3]
*62 io_in[4]
*63 io_in[5]
*64 io_in[6]
*65 io_in[7]
*66 io_in[8]
*67 io_in[9]
*68 io_oeb[0]
*69 io_oeb[10]
*70 io_oeb[11]
*71 io_oeb[12]
*72 io_oeb[13]
*73 io_oeb[14]
*74 io_oeb[15]
*75 io_oeb[16]
*76 io_oeb[17]
*77 io_oeb[18]
*78 io_oeb[19]
*79 io_oeb[1]
*80 io_oeb[20]
*81 io_oeb[21]
*82 io_oeb[22]
*83 io_oeb[23]
*84 io_oeb[24]
*85 io_oeb[25]
*86 io_oeb[26]
*87 io_oeb[27]
*88 io_oeb[28]
*89 io_oeb[29]
*90 io_oeb[2]
*91 io_oeb[30]
*92 io_oeb[31]
*93 io_oeb[32]
*94 io_oeb[33]
*95 io_oeb[34]
*96 io_oeb[35]
*97 io_oeb[36]
*98 io_oeb[37]
*99 io_oeb[3]
*100 io_oeb[4]
*101 io_oeb[5]
*102 io_oeb[6]
*103 io_oeb[7]
*104 io_oeb[8]
*105 io_oeb[9]
*106 io_out[0]
*107 io_out[10]
*108 io_out[11]
*109 io_out[12]
*110 io_out[13]
*111 io_out[14]
*112 io_out[15]
*113 io_out[16]
*114 io_out[17]
*115 io_out[18]
*116 io_out[19]
*117 io_out[1]
*118 io_out[20]
*119 io_out[21]
*120 io_out[22]
*121 io_out[23]
*122 io_out[24]
*123 io_out[25]
*124 io_out[26]
*125 io_out[27]
*126 io_out[28]
*127 io_out[29]
*128 io_out[2]
*129 io_out[30]
*130 io_out[31]
*131 io_out[32]
*132 io_out[33]
*133 io_out[34]
*134 io_out[35]
*135 io_out[36]
*136 io_out[37]
*137 io_out[3]
*138 io_out[4]
*139 io_out[5]
*140 io_out[6]
*141 io_out[7]
*142 io_out[8]
*143 io_out[9]
*146 wb_clk_i
*147 wb_rst_i
*148 wbs_ack_o
*149 wbs_adr_i[0]
*150 wbs_adr_i[10]
*151 wbs_adr_i[11]
*152 wbs_adr_i[12]
*153 wbs_adr_i[13]
*154 wbs_adr_i[14]
*155 wbs_adr_i[15]
*156 wbs_adr_i[16]
*157 wbs_adr_i[17]
*158 wbs_adr_i[18]
*159 wbs_adr_i[19]
*160 wbs_adr_i[1]
*161 wbs_adr_i[20]
*162 wbs_adr_i[21]
*163 wbs_adr_i[22]
*164 wbs_adr_i[23]
*165 wbs_adr_i[24]
*166 wbs_adr_i[25]
*167 wbs_adr_i[26]
*168 wbs_adr_i[27]
*169 wbs_adr_i[28]
*170 wbs_adr_i[29]
*171 wbs_adr_i[2]
*172 wbs_adr_i[30]
*173 wbs_adr_i[31]
*174 wbs_adr_i[3]
*175 wbs_adr_i[4]
*176 wbs_adr_i[5]
*177 wbs_adr_i[6]
*178 wbs_adr_i[7]
*179 wbs_adr_i[8]
*180 wbs_adr_i[9]
*181 wbs_cyc_i
*182 wbs_dat_i[0]
*183 wbs_dat_i[10]
*184 wbs_dat_i[11]
*185 wbs_dat_i[12]
*186 wbs_dat_i[13]
*187 wbs_dat_i[14]
*188 wbs_dat_i[15]
*189 wbs_dat_i[16]
*190 wbs_dat_i[17]
*191 wbs_dat_i[18]
*192 wbs_dat_i[19]
*193 wbs_dat_i[1]
*194 wbs_dat_i[20]
*195 wbs_dat_i[21]
*196 wbs_dat_i[22]
*197 wbs_dat_i[23]
*198 wbs_dat_i[24]
*199 wbs_dat_i[25]
*200 wbs_dat_i[26]
*201 wbs_dat_i[27]
*202 wbs_dat_i[28]
*203 wbs_dat_i[29]
*204 wbs_dat_i[2]
*205 wbs_dat_i[30]
*206 wbs_dat_i[31]
*207 wbs_dat_i[3]
*208 wbs_dat_i[4]
*209 wbs_dat_i[5]
*210 wbs_dat_i[6]
*211 wbs_dat_i[7]
*212 wbs_dat_i[8]
*213 wbs_dat_i[9]
*214 wbs_dat_o[0]
*215 wbs_dat_o[10]
*216 wbs_dat_o[11]
*217 wbs_dat_o[12]
*218 wbs_dat_o[13]
*219 wbs_dat_o[14]
*220 wbs_dat_o[15]
*221 wbs_dat_o[16]
*222 wbs_dat_o[17]
*223 wbs_dat_o[18]
*224 wbs_dat_o[19]
*225 wbs_dat_o[1]
*226 wbs_dat_o[20]
*227 wbs_dat_o[21]
*228 wbs_dat_o[22]
*229 wbs_dat_o[23]
*230 wbs_dat_o[24]
*231 wbs_dat_o[25]
*232 wbs_dat_o[26]
*233 wbs_dat_o[27]
*234 wbs_dat_o[28]
*235 wbs_dat_o[29]
*236 wbs_dat_o[2]
*237 wbs_dat_o[30]
*238 wbs_dat_o[31]
*239 wbs_dat_o[3]
*240 wbs_dat_o[4]
*241 wbs_dat_o[5]
*242 wbs_dat_o[6]
*243 wbs_dat_o[7]
*244 wbs_dat_o[8]
*245 wbs_dat_o[9]
*246 wbs_sel_i[0]
*247 wbs_sel_i[1]
*248 wbs_sel_i[2]
*249 wbs_sel_i[3]
*250 wbs_stb_i
*251 wbs_we_i
*252 x1\[0\]
*253 x1\[10\]
*254 x1\[11\]
*255 x1\[12\]
*256 x1\[13\]
*257 x1\[14\]
*258 x1\[15\]
*259 x1\[1\]
*260 x1\[2\]
*261 x1\[3\]
*262 x1\[4\]
*263 x1\[5\]
*264 x1\[6\]
*265 x1\[7\]
*266 x1\[8\]
*267 x1\[9\]
*268 x2\[0\]
*269 x2\[10\]
*270 x2\[11\]
*271 x2\[12\]
*272 x2\[13\]
*273 x2\[14\]
*274 x2\[15\]
*275 x2\[1\]
*276 x2\[2\]
*277 x2\[3\]
*278 x2\[4\]
*279 x2\[5\]
*280 x2\[6\]
*281 x2\[7\]
*282 x2\[8\]
*283 x2\[9\]
*284 x3\[0\]
*285 x3\[10\]
*286 x3\[11\]
*287 x3\[12\]
*288 x3\[13\]
*289 x3\[14\]
*290 x3\[15\]
*291 x3\[1\]
*292 x3\[2\]
*293 x3\[3\]
*294 x3\[4\]
*295 x3\[5\]
*296 x3\[6\]
*297 x3\[7\]
*298 x3\[8\]
*299 x3\[9\]
*300 x4\[0\]
*301 x4\[10\]
*302 x4\[11\]
*303 x4\[12\]
*304 x4\[13\]
*305 x4\[14\]
*306 x4\[15\]
*307 x4\[1\]
*308 x4\[2\]
*309 x4\[3\]
*310 x4\[4\]
*311 x4\[5\]
*312 x4\[6\]
*313 x4\[7\]
*314 x4\[8\]
*315 x4\[9\]
*316 x5\[0\]
*317 x5\[10\]
*318 x5\[11\]
*319 x5\[12\]
*320 x5\[13\]
*321 x5\[14\]
*322 x5\[15\]
*323 x5\[1\]
*324 x5\[2\]
*325 x5\[3\]
*326 x5\[4\]
*327 x5\[5\]
*328 x5\[6\]
*329 x5\[7\]
*330 x5\[8\]
*331 x5\[9\]
*332 mprj1
*333 mprj2
*334 mprj3
*335 mprj4
*336 mprj5
*337 ro1
*338 ro11
*339 ro12
*340 ro13
*341 ro14
*342 ro15
*343 ro3
*344 ro4
*345 ro5
*346 ro6
*347 ro7

*PORTS
analog_io[0] I
analog_io[10] I
analog_io[11] I
analog_io[12] I
analog_io[13] I
analog_io[14] I
analog_io[15] I
analog_io[16] I
analog_io[17] I
analog_io[18] I
analog_io[19] I
analog_io[1] I
analog_io[20] I
analog_io[21] I
analog_io[22] I
analog_io[23] I
analog_io[24] I
analog_io[25] I
analog_io[26] I
analog_io[27] I
analog_io[28] I
analog_io[2] I
analog_io[3] I
analog_io[4] I
analog_io[5] I
analog_io[6] I
analog_io[7] I
analog_io[8] I
analog_io[9] I
io_in[0] I
io_in[10] I
io_in[11] I
io_in[12] I
io_in[13] I
io_in[14] I
io_in[15] I
io_in[16] I
io_in[17] I
io_in[18] I
io_in[19] I
io_in[1] I
io_in[20] I
io_in[21] I
io_in[22] I
io_in[23] I
io_in[24] I
io_in[25] I
io_in[26] I
io_in[27] I
io_in[28] I
io_in[29] I
io_in[2] I
io_in[30] I
io_in[31] I
io_in[32] I
io_in[33] I
io_in[34] I
io_in[35] I
io_in[36] I
io_in[37] I
io_in[3] I
io_in[4] I
io_in[5] I
io_in[6] I
io_in[7] I
io_in[8] I
io_in[9] I
io_oeb[0] O
io_oeb[10] O
io_oeb[11] O
io_oeb[12] O
io_oeb[13] O
io_oeb[14] O
io_oeb[15] O
io_oeb[16] O
io_oeb[17] O
io_oeb[18] O
io_oeb[19] O
io_oeb[1] O
io_oeb[20] O
io_oeb[21] O
io_oeb[22] O
io_oeb[23] O
io_oeb[24] O
io_oeb[25] O
io_oeb[26] O
io_oeb[27] O
io_oeb[28] O
io_oeb[29] O
io_oeb[2] O
io_oeb[30] O
io_oeb[31] O
io_oeb[32] O
io_oeb[33] O
io_oeb[34] O
io_oeb[35] O
io_oeb[36] O
io_oeb[37] O
io_oeb[3] O
io_oeb[4] O
io_oeb[5] O
io_oeb[6] O
io_oeb[7] O
io_oeb[8] O
io_oeb[9] O
io_out[0] O
io_out[10] O
io_out[11] O
io_out[12] O
io_out[13] O
io_out[14] O
io_out[15] O
io_out[16] O
io_out[17] O
io_out[18] O
io_out[19] O
io_out[1] O
io_out[20] O
io_out[21] O
io_out[22] O
io_out[23] O
io_out[24] O
io_out[25] O
io_out[26] O
io_out[27] O
io_out[28] O
io_out[29] O
io_out[2] O
io_out[30] O
io_out[31] O
io_out[32] O
io_out[33] O
io_out[34] O
io_out[35] O
io_out[36] O
io_out[37] O
io_out[3] O
io_out[4] O
io_out[5] O
io_out[6] O
io_out[7] O
io_out[8] O
io_out[9] O
wb_clk_i I
wb_rst_i I
wbs_ack_o O
wbs_adr_i[0] I
wbs_adr_i[10] I
wbs_adr_i[11] I
wbs_adr_i[12] I
wbs_adr_i[13] I
wbs_adr_i[14] I
wbs_adr_i[15] I
wbs_adr_i[16] I
wbs_adr_i[17] I
wbs_adr_i[18] I
wbs_adr_i[19] I
wbs_adr_i[1] I
wbs_adr_i[20] I
wbs_adr_i[21] I
wbs_adr_i[22] I
wbs_adr_i[23] I
wbs_adr_i[24] I
wbs_adr_i[25] I
wbs_adr_i[26] I
wbs_adr_i[27] I
wbs_adr_i[28] I
wbs_adr_i[29] I
wbs_adr_i[2] I
wbs_adr_i[30] I
wbs_adr_i[31] I
wbs_adr_i[3] I
wbs_adr_i[4] I
wbs_adr_i[5] I
wbs_adr_i[6] I
wbs_adr_i[7] I
wbs_adr_i[8] I
wbs_adr_i[9] I
wbs_cyc_i I
wbs_dat_i[0] I
wbs_dat_i[10] I
wbs_dat_i[11] I
wbs_dat_i[12] I
wbs_dat_i[13] I
wbs_dat_i[14] I
wbs_dat_i[15] I
wbs_dat_i[16] I
wbs_dat_i[17] I
wbs_dat_i[18] I
wbs_dat_i[19] I
wbs_dat_i[1] I
wbs_dat_i[20] I
wbs_dat_i[21] I
wbs_dat_i[22] I
wbs_dat_i[23] I
wbs_dat_i[24] I
wbs_dat_i[25] I
wbs_dat_i[26] I
wbs_dat_i[27] I
wbs_dat_i[28] I
wbs_dat_i[29] I
wbs_dat_i[2] I
wbs_dat_i[30] I
wbs_dat_i[31] I
wbs_dat_i[3] I
wbs_dat_i[4] I
wbs_dat_i[5] I
wbs_dat_i[6] I
wbs_dat_i[7] I
wbs_dat_i[8] I
wbs_dat_i[9] I
wbs_dat_o[0] O
wbs_dat_o[10] O
wbs_dat_o[11] O
wbs_dat_o[12] O
wbs_dat_o[13] O
wbs_dat_o[14] O
wbs_dat_o[15] O
wbs_dat_o[16] O
wbs_dat_o[17] O
wbs_dat_o[18] O
wbs_dat_o[19] O
wbs_dat_o[1] O
wbs_dat_o[20] O
wbs_dat_o[21] O
wbs_dat_o[22] O
wbs_dat_o[23] O
wbs_dat_o[24] O
wbs_dat_o[25] O
wbs_dat_o[26] O
wbs_dat_o[27] O
wbs_dat_o[28] O
wbs_dat_o[29] O
wbs_dat_o[2] O
wbs_dat_o[30] O
wbs_dat_o[31] O
wbs_dat_o[3] O
wbs_dat_o[4] O
wbs_dat_o[5] O
wbs_dat_o[6] O
wbs_dat_o[7] O
wbs_dat_o[8] O
wbs_dat_o[9] O
wbs_sel_i[0] I
wbs_sel_i[1] I
wbs_sel_i[2] I
wbs_sel_i[3] I
wbs_stb_i I
wbs_we_i I

*D_NET *30 0.344163
*CONN
*P io_in[0] I
*I *337:s1 I *D sky130_osu_ring_oscillator_mpr2aa_8_b0r1
*I *343:s1 I *D sky130_osu_ring_oscillator_mpr2ca_8_b0r1
*I *344:s1 I *D sky130_osu_ring_oscillator_mpr2ct_8_b0r1
*I *345:s1 I *D sky130_osu_ring_oscillator_mpr2ea_8_b0r1
*I *346:s1 I *D sky130_osu_ring_oscillator_mpr2et_8_b0r1
*I *347:s1 I *D sky130_osu_ring_oscillator_mpr2xa_8_b0r1
*I *338:s1 I *D sky130_osu_ring_oscillator_mpr2ca_8_b0r2
*I *339:s1 I *D sky130_osu_ring_oscillator_mpr2ct_8_b0r2
*I *340:s1 I *D sky130_osu_ring_oscillator_mpr2ea_8_b0r2
*I *341:s1 I *D sky130_osu_ring_oscillator_mpr2et_8_b0r2
*I *342:s1 I *D sky130_osu_ring_oscillator_mpr2xa_8_b0r2
*CAP
1 io_in[0] 0.0647785
2 *337:s1 0.00883978
3 *343:s1 0.000194302
4 *344:s1 0.000161007
5 *345:s1 0.000221709
6 *346:s1 0.000127296
7 *347:s1 0.000222626
8 *338:s1 0.0001397
9 *339:s1 3.48835e-05
10 *340:s1 0.000219811
11 *341:s1 0.000120754
12 *342:s1 0.000220846
13 *30:172 0.013326
14 *30:158 0.00926582
15 *30:134 0.00896502
16 *30:120 0.00905605
17 *30:96 0.0221007
18 *30:82 0.0212301
19 *30:67 0.00888257
20 *30:43 0.00908298
21 *30:27 0.00899865
22 *30:13 0.00522425
23 *30:9 0.0440217
24 *30:7 0.0436701
25 *30:5 0.0647785
26 *342:s1 *257:12 0
27 *345:s1 *262:8 0
28 *347:s1 *264:12 0
29 *30:43 *255:16 0.000279566
30 *30:158 *260:20 0
31 *30:172 *260:20 0
*RES
1 io_in[0] *30:5 182.161 
2 *30:5 *30:7 0.5 
3 *30:7 *30:9 128.709 
4 *30:9 *30:13 0.868933 
5 *30:13 *342:s1 2.0375 
6 *30:13 *30:27 13.3025 
7 *30:27 *341:s1 2.30838 
8 *30:27 *30:43 12.6996 
9 *30:43 *340:s1 2.55097 
10 *30:43 *30:67 13.4039 
11 *30:67 *339:s1 1.06713 
12 *30:67 *30:82 12.7199 
13 *30:82 *338:s1 2.50915 
14 *30:82 *30:96 49.9092 
15 *30:96 *347:s1 4.55463 
16 *30:96 *30:120 14.1892 
17 *30:120 *346:s1 2.1979 
18 *30:120 *30:134 11.8383 
19 *30:134 *345:s1 4.52088 
20 *30:134 *30:158 13.8447 
21 *30:158 *344:s1 2.58617 
22 *30:158 *30:172 12.6135 
23 *30:172 *343:s1 3.80463 
24 *30:172 *337:s1 26.5702 
*END

*D_NET *41 0.374403
*CONN
*P io_in[1] I
*I *344:s2 I *D sky130_osu_ring_oscillator_mpr2ct_8_b0r1
*I *337:s2 I *D sky130_osu_ring_oscillator_mpr2aa_8_b0r1
*I *343:s2 I *D sky130_osu_ring_oscillator_mpr2ca_8_b0r1
*I *345:s2 I *D sky130_osu_ring_oscillator_mpr2ea_8_b0r1
*I *346:s2 I *D sky130_osu_ring_oscillator_mpr2et_8_b0r1
*I *347:s2 I *D sky130_osu_ring_oscillator_mpr2xa_8_b0r1
*I *338:s2 I *D sky130_osu_ring_oscillator_mpr2ca_8_b0r2
*I *339:s2 I *D sky130_osu_ring_oscillator_mpr2ct_8_b0r2
*I *340:s2 I *D sky130_osu_ring_oscillator_mpr2ea_8_b0r2
*I *341:s2 I *D sky130_osu_ring_oscillator_mpr2et_8_b0r2
*I *342:s2 I *D sky130_osu_ring_oscillator_mpr2xa_8_b0r2
*CAP
1 io_in[1] 0.0643119
2 *344:s2 6.89188e-05
3 *337:s2 0.0098823
4 *343:s2 0.000167356
5 *345:s2 0.000427479
6 *346:s2 0.0112654
7 *347:s2 0.000275841
8 *338:s2 8.90606e-05
9 *339:s2 0.000266563
10 *340:s2 0.000419752
11 *341:s2 0.0112036
12 *342:s2 0.000160022
13 *41:171 0.0153872
14 *41:165 0.0110894
15 *41:143 0.0114228
16 *41:101 0.0277108
17 *41:99 0.0214819
18 *41:87 0.00557251
19 *41:72 0.01107
20 *41:50 0.0110943
21 *41:9 0.0508072
22 *41:7 0.0447982
23 *41:5 0.0643119
24 *337:s2 *252:16 0
25 *347:s2 *280:8 0
26 *41:72 *270:12 0.000479843
27 *41:87 *52:86 0
28 *41:165 *277:12 0.00063834
29 *41:171 *252:16 0
*RES
1 io_in[1] *41:5 180.762 
2 *41:5 *41:7 0.5 
3 *41:7 *41:9 104.001 
4 *41:9 *342:s2 1.8627 
5 *41:9 *341:s2 17.2839 
6 *341:s2 *41:50 15.0324 
7 *41:50 *340:s2 6.73173 
8 *41:50 *41:72 12.6996 
9 *41:72 *339:s2 1.513 
10 *41:72 *41:87 13.7645 
11 *41:87 *338:s2 1.27963 
12 *41:87 *41:99 0.5 
13 *41:99 *41:101 49.9092 
14 *41:101 *347:s2 5.1379 
15 *41:101 *346:s2 17.7557 
16 *346:s2 *41:143 15.4918 
17 *41:143 *345:s2 2.98307 
18 *41:143 *41:165 13.8215 
19 *41:165 *41:171 12.8361 
20 *41:171 *343:s2 2.44915 
21 *41:171 *337:s2 26.6943 
22 *41:165 *344:s2 1.7075 
*END

*D_NET *52 0.322537
*CONN
*P io_in[2] I
*I *337:s3 I *D sky130_osu_ring_oscillator_mpr2aa_8_b0r1
*I *343:s3 I *D sky130_osu_ring_oscillator_mpr2ca_8_b0r1
*I *344:s3 I *D sky130_osu_ring_oscillator_mpr2ct_8_b0r1
*I *345:s3 I *D sky130_osu_ring_oscillator_mpr2ea_8_b0r1
*I *346:s3 I *D sky130_osu_ring_oscillator_mpr2et_8_b0r1
*I *347:s3 I *D sky130_osu_ring_oscillator_mpr2xa_8_b0r1
*I *338:s3 I *D sky130_osu_ring_oscillator_mpr2ca_8_b0r2
*I *339:s3 I *D sky130_osu_ring_oscillator_mpr2ct_8_b0r2
*I *340:s3 I *D sky130_osu_ring_oscillator_mpr2ea_8_b0r2
*I *341:s3 I *D sky130_osu_ring_oscillator_mpr2et_8_b0r2
*I *342:s3 I *D sky130_osu_ring_oscillator_mpr2xa_8_b0r2
*CAP
1 io_in[2] 0.0630776
2 *337:s3 0.00916818
3 *343:s3 0.000172627
4 *344:s3 0.000138448
5 *345:s3 0.000203119
6 *346:s3 4.25088e-05
7 *347:s3 0.000182128
8 *338:s3 0.000109481
9 *339:s3 2.10022e-05
10 *340:s3 0.000165159
11 *341:s3 6.68147e-05
12 *342:s3 0.000518086
13 *52:179 0.0139108
14 *52:165 0.00995197
15 *52:141 0.010116
16 *52:126 0.00991766
17 *52:104 0.0211106
18 *52:102 0.0169711
19 *52:86 0.00588008
20 *52:61 0.00919933
21 *52:41 0.0105626
22 *52:22 0.0106718
23 *52:9 0.0361759
24 *52:7 0.0307941
25 *52:5 0.0630776
26 *345:s3 *294:12 0
27 *52:22 *288:12 0.000332493
28 *41:87 *52:86 0
*RES
1 io_in[2] *52:5 177.732 
2 *52:5 *52:7 0.5 
3 *52:7 *52:9 79.1945 
4 *52:9 *342:s3 2.4459 
5 *52:9 *52:22 12.3551 
6 *52:22 *341:s3 1.1539 
7 *52:22 *52:41 14.8488 
8 *52:41 *340:s3 3.02713 
9 *52:41 *52:61 13.6996 
10 *52:61 *339:s3 0.567133 
11 *52:61 *52:86 14.1952 
12 *52:86 *338:s3 2.29338 
13 *52:86 *52:102 3.79493 
14 *52:102 *52:104 46.4537 
15 *52:104 *347:s3 3.66963 
16 *52:104 *52:126 14.2095 
17 *52:126 *346:s3 3.17963 
18 *52:126 *52:141 12.0105 
19 *52:141 *345:s3 4.18338 
20 *52:141 *52:165 13.4951 
21 *52:165 *344:s3 2.4829 
22 *52:165 *52:179 12.7857 
23 *52:179 *343:s3 1.37493 
24 *52:179 *337:s3 26.3644 
*END

*D_NET *61 0.364726
*CONN
*P io_in[3] I
*I *338:s4 I *D sky130_osu_ring_oscillator_mpr2ca_8_b0r2
*I *337:s4 I *D sky130_osu_ring_oscillator_mpr2aa_8_b0r1
*I *343:s4 I *D sky130_osu_ring_oscillator_mpr2ca_8_b0r1
*I *344:s4 I *D sky130_osu_ring_oscillator_mpr2ct_8_b0r1
*I *345:s4 I *D sky130_osu_ring_oscillator_mpr2ea_8_b0r1
*I *346:s4 I *D sky130_osu_ring_oscillator_mpr2et_8_b0r1
*I *347:s4 I *D sky130_osu_ring_oscillator_mpr2xa_8_b0r1
*I *339:s4 I *D sky130_osu_ring_oscillator_mpr2ct_8_b0r2
*I *340:s4 I *D sky130_osu_ring_oscillator_mpr2ea_8_b0r2
*I *341:s4 I *D sky130_osu_ring_oscillator_mpr2et_8_b0r2
*I *342:s4 I *D sky130_osu_ring_oscillator_mpr2xa_8_b0r2
*CAP
1 io_in[3] 0.000733785
2 *338:s4 5.73167e-05
3 *337:s4 0.00875882
4 *343:s4 0.000173729
5 *344:s4 0.000228045
6 *345:s4 0.000175856
7 *346:s4 0.000196433
8 *347:s4 0.000267307
9 *339:s4 3.48835e-05
10 *340:s4 8.88524e-05
11 *341:s4 3.06054e-05
12 *342:s4 0.00108824
13 *61:175 0.0133725
14 *61:153 0.00925224
15 *61:135 0.00877931
16 *61:120 0.00775237
17 *61:92 0.0183123
18 *61:90 0.0146696
19 *61:86 0.00448354
20 *61:69 0.00884277
21 *61:58 0.00939535
22 *61:39 0.00868256
23 *61:13 0.0428934
24 *61:11 0.0379166
25 *61:9 0.0147267
26 *61:7 0.0154605
27 *337:s4 *300:14 0
28 *345:s4 *310:12 0
29 *347:s4 *312:11 0
30 *61:9 *62:9 0.00933007
31 *61:13 *342:s5 0.00120156
32 *61:13 *62:13 0.117015
33 *61:58 *303:12 0.000234803
34 *61:86 *62:100 0
35 *61:92 *295:20 0.00539618
36 *61:92 *309:14 0
37 *61:120 *295:20 0.00517405
38 *61:120 *309:14 0
39 *61:135 *309:14 0
40 *61:153 *300:14 0
41 *61:153 *309:14 0
42 *61:175 *300:14 0
*RES
1 io_in[3] *61:7 2.58747 
2 *61:7 *61:9 327.015 
3 *61:9 *61:11 0.5 
4 *61:11 *61:13 173.469 
5 *61:13 *342:s4 9.839 
6 *61:13 *61:39 11.5631 
7 *61:39 *341:s4 1.0589 
8 *61:39 *61:58 14.0423 
9 *61:58 *340:s4 1.21723 
10 *61:58 *61:69 13.0441 
11 *61:69 *339:s4 1.06713 
12 *61:69 *61:86 13.3921 
13 *61:86 *61:90 0.8876 
14 *61:90 *61:92 49.7369 
15 *61:92 *347:s4 5.30463 
16 *61:92 *61:120 13.8903 
17 *61:120 *346:s4 4.03923 
18 *61:120 *61:135 12.0967 
19 *61:135 *345:s4 3.56463 
20 *61:135 *61:153 13.0441 
21 *61:153 *344:s4 4.13117 
22 *61:153 *61:175 13.0441 
23 *61:175 *343:s4 1.3781 
24 *61:175 *337:s4 26.4993 
25 *61:86 *338:s4 0.626667 
*END

*D_NET *62 0.3499
*CONN
*P io_in[4] I
*I *339:s5 I *D sky130_osu_ring_oscillator_mpr2ct_8_b0r2
*I *337:s5 I *D sky130_osu_ring_oscillator_mpr2aa_8_b0r1
*I *343:s5 I *D sky130_osu_ring_oscillator_mpr2ca_8_b0r1
*I *344:s5 I *D sky130_osu_ring_oscillator_mpr2ct_8_b0r1
*I *345:s5 I *D sky130_osu_ring_oscillator_mpr2ea_8_b0r1
*I *346:s5 I *D sky130_osu_ring_oscillator_mpr2et_8_b0r1
*I *347:s5 I *D sky130_osu_ring_oscillator_mpr2xa_8_b0r1
*I *338:s5 I *D sky130_osu_ring_oscillator_mpr2ca_8_b0r2
*I *340:s5 I *D sky130_osu_ring_oscillator_mpr2ea_8_b0r2
*I *341:s5 I *D sky130_osu_ring_oscillator_mpr2et_8_b0r2
*I *342:s5 I *D sky130_osu_ring_oscillator_mpr2xa_8_b0r2
*CAP
1 io_in[4] 0.000693236
2 *339:s5 2.70262e-05
3 *337:s5 0.00884871
4 *343:s5 0.000193936
5 *344:s5 0.000154778
6 *345:s5 0.000222535
7 *346:s5 0.000378906
8 *347:s5 0.000203151
9 *338:s5 0.000107622
10 *340:s5 0.000223912
11 *341:s5 0.0001177
12 *342:s5 0.000948411
13 *62:207 0.0134921
14 *62:189 0.00924011
15 *62:169 0.00901173
16 *62:146 0.00795741
17 *62:118 0.0131199
18 *62:116 0.0106274
19 *62:100 0.00581114
20 *62:88 0.00903971
21 *62:68 0.00489783
22 *62:62 0.00402567
23 *62:60 0.00456325
24 *62:43 0.00474538
25 *62:13 0.0422623
26 *62:11 0.0374527
27 *62:9 0.00653131
28 *62:7 0.00722455
29 *337:s5 *300:14 0
30 *62:9 *63:11 0
31 *62:116 *311:14 0.000123752
32 *62:118 *300:14 0.00339932
33 *62:118 *309:14 0
34 *62:118 *311:14 0.0110072
35 *62:146 *300:14 0.00018796
36 *62:146 *311:12 0.000338718
37 *62:146 *311:14 0.00517312
38 *62:169 *300:14 0
39 *62:207 *300:14 0
40 *61:9 *62:9 0.00933007
41 *61:13 *342:s5 0.00120156
42 *61:13 *62:13 0.117015
43 *61:86 *62:100 0
*RES
1 io_in[4] *62:7 2.47093 
2 *62:7 *62:9 178.095 
3 *62:9 *62:11 0.5 
4 *62:11 *62:13 171.488 
5 *62:13 *342:s5 11.3377 
6 *62:13 *62:43 11.4769 
7 *62:43 *341:s5 1.3002 
8 *62:43 *62:60 3.1774 
9 *62:60 *62:62 68.445 
10 *62:62 *62:68 1.77 
11 *62:68 *340:s5 4.05463 
12 *62:68 *62:88 13.6996 
13 *62:88 *62:100 14.1977 
14 *62:100 *338:s5 2.25963 
15 *62:100 *62:116 3.56187 
16 *62:116 *62:118 46.4537 
17 *62:118 *347:s5 5.85713 
18 *62:118 *62:146 14.0068 
19 *62:146 *346:s5 4.56363 
20 *62:146 *62:169 12.5983 
21 *62:169 *345:s5 4.53588 
22 *62:169 *62:189 13.2164 
23 *62:189 *344:s5 2.7829 
24 *62:189 *62:207 13.1252 
25 *62:207 *343:s5 3.87588 
26 *62:207 *337:s5 27.5496 
27 *62:88 *339:s5 0.567133 
*END

*D_NET *63 0.257106
*CONN
*P io_in[5] I
*I *342:start I *D sky130_osu_ring_oscillator_mpr2xa_8_b0r2
*I *337:start I *D sky130_osu_ring_oscillator_mpr2aa_8_b0r1
*I *343:start I *D sky130_osu_ring_oscillator_mpr2ca_8_b0r1
*I *344:start I *D sky130_osu_ring_oscillator_mpr2ct_8_b0r1
*I *345:start I *D sky130_osu_ring_oscillator_mpr2ea_8_b0r1
*I *346:start I *D sky130_osu_ring_oscillator_mpr2et_8_b0r1
*I *347:start I *D sky130_osu_ring_oscillator_mpr2xa_8_b0r1
*I *338:start I *D sky130_osu_ring_oscillator_mpr2ca_8_b0r2
*I *339:start I *D sky130_osu_ring_oscillator_mpr2ct_8_b0r2
*I *340:start I *D sky130_osu_ring_oscillator_mpr2ea_8_b0r2
*I *341:start I *D sky130_osu_ring_oscillator_mpr2et_8_b0r2
*CAP
1 io_in[5] 0.00187396
2 *342:start 4.03196e-05
3 *337:start 0.000573462
4 *343:start 0.000506263
5 *344:start 0.000509298
6 *345:start 0.000501245
7 *346:start 0.000519269
8 *347:start 0.000583434
9 *338:start 0.000587936
10 *339:start 0.000559155
11 *340:start 0.000560889
12 *341:start 0.000562407
13 *63:143 0.00877743
14 *63:130 0.0128482
15 *63:117 0.00878303
16 *63:105 0.00877725
17 *63:93 0.00888867
18 *63:79 0.0212326
19 *63:61 0.0211496
20 *63:49 0.00883518
21 *63:37 0.00883691
22 *63:25 0.00885248
23 *63:23 0.00465033
24 *63:19 0.000657264
25 *63:13 0.0628401
26 *63:11 0.064599
27 *62:9 *63:11 0
*RES
1 io_in[5] *63:11 27.3621 
2 *63:11 *63:13 1083.75 
3 *63:13 *63:19 2.445 
4 *63:19 *63:23 10.73 
5 *63:23 *63:25 75.33 
6 *63:25 *341:start 11.6488 
7 *63:25 *63:37 75.075 
8 *63:37 *340:start 11.6225 
9 *63:37 *63:49 75.075 
10 *63:49 *339:start 11.5925 
11 *63:49 *63:61 75.075 
12 *63:61 *338:start 12.9125 
13 *63:61 *63:79 298.2 
14 *63:79 *347:start 12.0125 
15 *63:79 *63:93 76.35 
16 *63:93 *346:start 10.9025 
17 *63:93 *63:105 75.075 
18 *63:105 *345:start 10.8725 
19 *63:105 *63:117 75.075 
20 *63:117 *344:start 10.73 
21 *63:117 *63:130 75.075 
22 *63:130 *343:start 10.73 
23 *63:130 *63:143 149.025 
24 *63:143 *337:start 11.84 
25 *63:19 *342:start 0.6975 
*END

*D_NET *64 0.103049
*CONN
*P io_in[6] I
*I *335:select[0] I *D mux16x1_project
*I *334:select[0] I *D mux16x1_project
*I *333:select[0] I *D mux16x1_project
*I *332:select[0] I *D mux16x1_project
*I *336:select[0] I *D mux16x1_project
*CAP
1 io_in[6] 0.000726364
2 *335:select[0] 7.89038e-05
3 *334:select[0] 7.89038e-05
4 *333:select[0] 7.89038e-05
5 *332:select[0] 0.00011691
6 *336:select[0] 0.000449248
7 *64:59 0.00392148
8 *64:57 0.00384836
9 *64:55 0.00449752
10 *64:53 0.00606746
11 *64:51 0.00361685
12 *64:45 0.00681336
13 *64:43 0.00606516
14 *64:41 0.00333969
15 *64:35 0.00709007
16 *64:33 0.00610712
17 *64:29 0.00701075
18 *64:27 0.00687832
19 *64:15 0.0146922
20 *64:9 0.0170986
21 *64:7 0.00447245
22 *64:15 *336:select[1] 0
23 *64:15 *336:select[2] 0
*RES
1 io_in[6] *64:7 2.58747 
2 *64:7 *64:9 67.935 
3 *64:9 *64:15 38.6783 
4 *64:15 *336:select[0] 8.1675 
5 *64:15 *64:27 16.215 
6 *64:27 *64:29 108.78 
7 *64:29 *64:33 18.69 
8 *64:33 *64:35 90.99 
9 *64:35 *64:41 37.92 
10 *64:41 *64:43 22.935 
11 *64:43 *64:45 85.95 
12 *64:45 *64:51 37.92 
13 *64:51 *64:53 27.975 
14 *64:53 *64:55 80.91 
15 *64:55 *64:57 0.795 
16 *64:57 *64:59 69.24 
17 *64:59 *332:select[0] 2.1225 
18 *64:53 *333:select[0] 1.4325 
19 *64:43 *334:select[0] 1.4325 
20 *64:33 *335:select[0] 1.4325 
*END

*D_NET *65 0.0992432
*CONN
*P io_in[7] I
*I *336:select[1] I *D mux16x1_project
*I *335:select[1] I *D mux16x1_project
*I *332:select[1] I *D mux16x1_project
*I *333:select[1] I *D mux16x1_project
*I *334:select[1] I *D mux16x1_project
*CAP
1 io_in[7] 0.00148695
2 *336:select[1] 0.00885098
3 *335:select[1] 9.10709e-05
4 *332:select[1] 0.0081538
5 *333:select[1] 0.000436302
6 *334:select[1] 5.83572e-05
7 *65:32 0.017813
8 *65:21 0.0177991
9 *65:15 0.00877461
10 *65:13 0.0216543
11 *65:11 0.0141246
12 *65:13 *335:select[2] 0
13 *64:15 *336:select[1] 0
*RES
1 io_in[7] *65:11 16.5107 
2 *65:11 *65:13 35.435 
3 *65:13 *65:15 0.416733 
4 *65:15 *65:21 25.3837 
5 *65:21 *334:select[1] 1.1254 
6 *65:21 *65:32 26.9116 
7 *65:32 *333:select[1] 7.8079 
8 *65:32 *332:select[1] 24.9362 
9 *65:15 *335:select[1] 2.0825 
10 *65:13 *336:select[1] 36.0662 
*END

*D_NET *66 0.0975231
*CONN
*P io_in[8] I
*I *332:select[2] I *D mux16x1_project
*I *333:select[2] I *D mux16x1_project
*I *334:select[2] I *D mux16x1_project
*I *335:select[2] I *D mux16x1_project
*I *336:select[2] I *D mux16x1_project
*CAP
1 io_in[8] 0.0126775
2 *332:select[2] 0.00815382
3 *333:select[2] 0.000436304
4 *334:select[2] 5.8375e-05
5 *335:select[2] 0.000440849
6 *336:select[2] 0.00926861
7 *66:60 0.0157906
8 *66:15 0.0178057
9 *66:13 0.010584
10 *66:7 0.0223074
11 *64:15 *336:select[2] 0
12 *65:13 *335:select[2] 0
*RES
1 io_in[8] *66:7 36.2947 
2 *66:7 *66:13 7.29853 
3 *66:13 *66:15 23.8969 
4 *66:15 *336:select[2] 36.1362 
5 *66:15 *335:select[2] 7.8079 
6 *66:13 *334:select[2] 1.1254 
7 *66:7 *66:60 20.8113 
8 *66:60 *333:select[2] 7.8079 
9 *66:60 *332:select[2] 24.9362 
*END

*D_NET *67 0.0919754
*CONN
*P io_in[9] I
*I *332:select[3] I *D mux16x1_project
*I *336:select[3] I *D mux16x1_project
*I *335:select[3] I *D mux16x1_project
*I *334:select[3] I *D mux16x1_project
*I *333:select[3] I *D mux16x1_project
*CAP
1 io_in[9] 0.012166
2 *332:select[3] 0.000135913
3 *336:select[3] 0.00135274
4 *335:select[3] 7.89038e-05
5 *334:select[3] 9.79068e-05
6 *333:select[3] 9.79068e-05
7 *67:65 0.00353735
8 *67:53 0.0083992
9 *67:51 0.00710926
10 *67:43 0.00114067
11 *67:39 0.00698492
12 *67:37 0.0072856
13 *67:27 0.00218299
14 *67:23 0.00677661
15 *67:21 0.00756727
16 *67:11 0.00171779
17 *67:9 0.0049104
18 *67:7 0.020434
*RES
1 io_in[9] *67:7 34.8672 
2 *67:7 *67:9 88.335 
3 *67:9 *67:11 0.795 
4 *67:11 *333:select[3] 1.7775 
5 *67:11 *67:21 28.77 
6 *67:21 *67:23 108.78 
7 *67:23 *67:27 14.295 
8 *67:27 *334:select[3] 1.7775 
9 *67:27 *67:37 23.73 
10 *67:37 *67:39 108.78 
11 *67:39 *67:43 18.15 
12 *67:43 *335:select[3] 1.4325 
13 *67:43 *67:51 1.14 
14 *67:51 *67:53 128.1 
15 *67:53 *336:select[3] 24.6225 
16 *67:7 *67:65 61.815 
17 *67:65 *332:select[3] 2.4675 
*END

*D_NET *106 0.195542
*CONN
*P io_out[0] O
*I *332:y O *D mux16x1_project
*I *333:y O *D mux16x1_project
*I *334:y O *D mux16x1_project
*I *335:y O *D mux16x1_project
*I *336:y O *D mux16x1_project
*CAP
1 io_out[0] 0.0115942
2 *332:y 0.00900204
3 *333:y 0.000384819
4 *334:y 0.000384819
5 *335:y 0.000384819
6 *336:y 0.000384819
7 *106:43 0.0179566
8 *106:33 0.0175769
9 *106:23 0.0176296
10 *106:13 0.0607665
11 *106:11 0.0498211
12 *106:7 0.00965611
*RES
1 *336:y *106:7 1.5678 
2 *106:7 *106:11 1.94813 
3 *106:11 *106:13 144.826 
4 *106:13 io_out[0] 33.2649 
5 *106:7 *106:23 25.3612 
6 *106:23 *335:y 1.5678 
7 *106:23 *106:33 25.3612 
8 *106:33 *334:y 1.5678 
9 *106:33 *106:43 25.3612 
10 *106:43 *333:y 1.5678 
11 *106:43 *332:y 26.929 
*END

*D_NET *252 0.137943
*CONN
*I *332:data_in[0] I *D mux16x1_project
*I *337:X1_Y1 O *D sky130_osu_ring_oscillator_mpr2aa_8_b0r1
*CAP
1 *332:data_in[0] 0.00243704
2 *337:X1_Y1 0.00084124
3 *252:18 0.0505708
4 *252:16 0.0601898
5 *252:12 0.0128973
6 *252:16 *260:20 0.00943852
7 *252:16 *261:11 0.00156797
8 *337:s2 *252:16 0
9 *41:171 *252:16 0
*RES
1 *337:X1_Y1 *252:12 14.879 
2 *252:12 *252:16 42.3988 
3 *252:16 *252:18 134.751 
4 *252:18 *332:data_in[0] 7.0186 
*END

*D_NET *253 0.156124
*CONN
*I *332:data_in[10] I *D mux16x1_project
*I *338:X1_Y1 O *D sky130_osu_ring_oscillator_mpr2ca_8_b0r2
*CAP
1 *332:data_in[10] 0.000633651
2 *338:X1_Y1 0.000622994
3 *253:22 0.0429476
4 *253:20 0.0423139
5 *253:18 0.0246223
6 *253:16 0.0246223
7 *253:14 0.00277658
8 *253:12 0.00339957
9 *332:data_in[10] *332:data_in[11] 0
10 *253:14 *269:16 0.000814071
11 *253:14 *285:12 0.00534678
12 *253:14 *301:12 0
13 *253:14 *301:14 0
14 *253:22 *310:14 0.00802398
*RES
1 *338:X1_Y1 *253:12 15.025 
2 *253:12 *253:14 69.9675 
3 *253:14 *253:16 2 
4 *253:16 *253:18 446.1 
5 *253:18 *253:20 2 
6 *253:20 *253:22 758.415 
7 *253:22 *332:data_in[10] 5.11883 
*END

*D_NET *254 0.160459
*CONN
*I *332:data_in[11] I *D mux16x1_project
*I *339:X1_Y1 O *D sky130_osu_ring_oscillator_mpr2ct_8_b0r2
*CAP
1 *332:data_in[11] 0.000651407
2 *339:X1_Y1 0.000571239
3 *254:18 0.0443019
4 *254:16 0.0436504
5 *254:14 0.0286295
6 *254:12 0.0286295
7 *254:10 0.00311813
8 *254:8 0.00368937
9 *332:data_in[11] *332:data_in[12] 0
10 *254:10 *270:14 0.00721734
11 *332:data_in[10] *332:data_in[11] 0
*RES
1 *339:X1_Y1 *254:8 14.3125 
2 *254:8 *254:10 78.075 
3 *254:10 *254:12 2 
4 *254:12 *254:14 518.52 
5 *254:14 *254:16 2 
6 *254:16 *254:18 753.24 
7 *254:18 *332:data_in[11] 5.37383 
*END

*D_NET *255 0.264844
*CONN
*I *332:data_in[12] I *D mux16x1_project
*I *340:X1_Y1 O *D sky130_osu_ring_oscillator_mpr2ea_8_b0r2
*CAP
1 *332:data_in[12] 0.00040939
2 *340:X1_Y1 0.00123286
3 *255:22 0.0115736
4 *255:20 0.0111642
5 *255:18 0.0293791
6 *255:16 0.030612
7 *332:data_in[12] *332:data_in[13] 0
8 *255:16 *271:14 2.53023e-05
9 *255:18 *271:14 0.00040104
10 *255:18 *287:10 0.00228447
11 *255:18 *317:15 0.0857226
12 *255:22 *256:14 0.0523349
13 *255:22 *269:22 0.000598413
14 *255:22 *272:14 0.0388264
15 *332:data_in[11] *332:data_in[12] 0
16 *30:43 *255:16 0.000279566
*RES
1 *340:X1_Y1 *255:16 25.87 
2 *255:16 *255:18 820.688 
3 *255:18 *255:20 2 
4 *255:20 *255:22 586.222 
5 *255:22 *332:data_in[12] 1.6552 
*END

*D_NET *256 0.25667
*CONN
*I *332:data_in[13] I *D mux16x1_project
*I *341:X1_Y1 O *D sky130_osu_ring_oscillator_mpr2et_8_b0r2
*CAP
1 *332:data_in[13] 0.000438672
2 *341:X1_Y1 0.000522146
3 *256:14 0.0233501
4 *256:12 0.0229115
5 *256:10 0.0298482
6 *256:8 0.0303703
7 *332:data_in[13] *332:data_in[14] 0
8 *256:10 *272:10 0.0908153
9 *256:14 *332:data_in[14] 0
10 *256:14 *333:data_in[0] 0
11 *256:14 *333:data_in[11] 0
12 *256:14 *333:data_in[12] 0
13 *256:14 *333:data_in[14] 0
14 *256:14 *333:data_in[2] 0
15 *256:14 *333:data_in[3] 0
16 *256:14 *333:data_in[4] 0
17 *256:14 *333:data_in[5] 0
18 *256:14 *333:data_in[6] 0
19 *256:14 *334:data_in[0] 0
20 *256:14 *334:data_in[10] 0
21 *256:14 *334:data_in[11] 0
22 *256:14 *334:data_in[12] 0
23 *256:14 *334:data_in[14] 0
24 *256:14 *334:data_in[2] 0
25 *256:14 *334:data_in[3] 0
26 *256:14 *334:data_in[4] 0
27 *256:14 *334:data_in[6] 0
28 *256:14 *335:data_in[10] 0
29 *256:14 *335:data_in[12] 0
30 *256:14 *335:data_in[2] 0
31 *256:14 *335:data_in[4] 0
32 *256:14 *335:data_in[6] 0
33 *256:14 *336:data_in[0] 0