*SPEF "ieee 1481-1999"
*DESIGN "user_project_wrapper"
*DATE "11:11:11 Fri 11 11, 1111"
*VENDOR "OpenRCX"
*PROGRAM "Parallel Extraction"
*VERSION "1.0"
*DESIGN_FLOW "NAME_SCOPE LOCAL" "PIN_CAP NONE"
*DIVIDER /
*DELIMITER :
*BUS_DELIMITER []
*T_UNIT 1 NS
*C_UNIT 1 PF
*R_UNIT 1 OHM
*L_UNIT 1 HENRY

*NAME_MAP
*1 analog_io[0]
*2 analog_io[10]
*3 analog_io[11]
*4 analog_io[12]
*5 analog_io[13]
*6 analog_io[14]
*7 analog_io[15]
*8 analog_io[16]
*9 analog_io[17]
*10 analog_io[18]
*11 analog_io[19]
*12 analog_io[1]
*13 analog_io[20]
*14 analog_io[21]
*15 analog_io[22]
*16 analog_io[23]
*17 analog_io[24]
*18 analog_io[25]
*19 analog_io[26]
*20 analog_io[27]
*21 analog_io[28]
*22 analog_io[2]
*23 analog_io[3]
*24 analog_io[4]
*25 analog_io[5]
*26 analog_io[6]
*27 analog_io[7]
*28 analog_io[8]
*29 analog_io[9]
*30 io_in[0]
*31 io_in[10]
*32 io_in[11]
*33 io_in[12]
*34 io_in[13]
*35 io_in[14]
*36 io_in[15]
*37 io_in[16]
*38 io_in[17]
*39 io_in[18]
*40 io_in[19]
*41 io_in[1]
*42 io_in[20]
*43 io_in[21]
*44 io_in[22]
*45 io_in[23]
*46 io_in[24]
*47 io_in[25]
*48 io_in[26]
*49 io_in[27]
*50 io_in[28]
*51 io_in[29]
*52 io_in[2]
*53 io_in[30]
*54 io_in[31]
*55 io_in[32]
*56 io_in[33]
*57 io_in[34]
*58 io_in[35]
*59 io_in[36]
*60 io_in[37]
*61 io_in[3]
*62 io_in[4]
*63 io_in[5]
*64 io_in[6]
*65 io_in[7]
*66 io_in[8]
*67 io_in[9]
*68 io_oeb[0]
*69 io_oeb[10]
*70 io_oeb[11]
*71 io_oeb[12]
*72 io_oeb[13]
*73 io_oeb[14]
*74 io_oeb[15]
*75 io_oeb[16]
*76 io_oeb[17]
*77 io_oeb[18]
*78 io_oeb[19]
*79 io_oeb[1]
*80 io_oeb[20]
*81 io_oeb[21]
*82 io_oeb[22]
*83 io_oeb[23]
*84 io_oeb[24]
*85 io_oeb[25]
*86 io_oeb[26]
*87 io_oeb[27]
*88 io_oeb[28]
*89 io_oeb[29]
*90 io_oeb[2]
*91 io_oeb[30]
*92 io_oeb[31]
*93 io_oeb[32]
*94 io_oeb[33]
*95 io_oeb[34]
*96 io_oeb[35]
*97 io_oeb[36]
*98 io_oeb[37]
*99 io_oeb[3]
*100 io_oeb[4]
*101 io_oeb[5]
*102 io_oeb[6]
*103 io_oeb[7]
*104 io_oeb[8]
*105 io_oeb[9]
*106 io_out[0]
*107 io_out[10]
*108 io_out[11]
*109 io_out[12]
*110 io_out[13]
*111 io_out[14]
*112 io_out[15]
*113 io_out[16]
*114 io_out[17]
*115 io_out[18]
*116 io_out[19]
*117 io_out[1]
*118 io_out[20]
*119 io_out[21]
*120 io_out[22]
*121 io_out[23]
*122 io_out[24]
*123 io_out[25]
*124 io_out[26]
*125 io_out[27]
*126 io_out[28]
*127 io_out[29]
*128 io_out[2]
*129 io_out[30]
*130 io_out[31]
*131 io_out[32]
*132 io_out[33]
*133 io_out[34]
*134 io_out[35]
*135 io_out[36]
*136 io_out[37]
*137 io_out[3]
*138 io_out[4]
*139 io_out[5]
*140 io_out[6]
*141 io_out[7]
*142 io_out[8]
*143 io_out[9]
*146 wb_clk_i
*147 wb_rst_i
*148 wbs_ack_o
*149 wbs_adr_i[0]
*150 wbs_adr_i[10]
*151 wbs_adr_i[11]
*152 wbs_adr_i[12]
*153 wbs_adr_i[13]
*154 wbs_adr_i[14]
*155 wbs_adr_i[15]
*156 wbs_adr_i[16]
*157 wbs_adr_i[17]
*158 wbs_adr_i[18]
*159 wbs_adr_i[19]
*160 wbs_adr_i[1]
*161 wbs_adr_i[20]
*162 wbs_adr_i[21]
*163 wbs_adr_i[22]
*164 wbs_adr_i[23]
*165 wbs_adr_i[24]
*166 wbs_adr_i[25]
*167 wbs_adr_i[26]
*168 wbs_adr_i[27]
*169 wbs_adr_i[28]
*170 wbs_adr_i[29]
*171 wbs_adr_i[2]
*172 wbs_adr_i[30]
*173 wbs_adr_i[31]
*174 wbs_adr_i[3]
*175 wbs_adr_i[4]
*176 wbs_adr_i[5]
*177 wbs_adr_i[6]
*178 wbs_adr_i[7]
*179 wbs_adr_i[8]
*180 wbs_adr_i[9]
*181 wbs_cyc_i
*182 wbs_dat_i[0]
*183 wbs_dat_i[10]
*184 wbs_dat_i[11]
*185 wbs_dat_i[12]
*186 wbs_dat_i[13]
*187 wbs_dat_i[14]
*188 wbs_dat_i[15]
*189 wbs_dat_i[16]
*190 wbs_dat_i[17]
*191 wbs_dat_i[18]
*192 wbs_dat_i[19]
*193 wbs_dat_i[1]
*194 wbs_dat_i[20]
*195 wbs_dat_i[21]
*196 wbs_dat_i[22]
*197 wbs_dat_i[23]
*198 wbs_dat_i[24]
*199 wbs_dat_i[25]
*200 wbs_dat_i[26]
*201 wbs_dat_i[27]
*202 wbs_dat_i[28]
*203 wbs_dat_i[29]
*204 wbs_dat_i[2]
*205 wbs_dat_i[30]
*206 wbs_dat_i[31]
*207 wbs_dat_i[3]
*208 wbs_dat_i[4]
*209 wbs_dat_i[5]
*210 wbs_dat_i[6]
*211 wbs_dat_i[7]
*212 wbs_dat_i[8]
*213 wbs_dat_i[9]
*214 wbs_dat_o[0]
*215 wbs_dat_o[10]
*216 wbs_dat_o[11]
*217 wbs_dat_o[12]
*218 wbs_dat_o[13]
*219 wbs_dat_o[14]
*220 wbs_dat_o[15]
*221 wbs_dat_o[16]
*222 wbs_dat_o[17]
*223 wbs_dat_o[18]
*224 wbs_dat_o[19]
*225 wbs_dat_o[1]
*226 wbs_dat_o[20]
*227 wbs_dat_o[21]
*228 wbs_dat_o[22]
*229 wbs_dat_o[23]
*230 wbs_dat_o[24]
*231 wbs_dat_o[25]
*232 wbs_dat_o[26]
*233 wbs_dat_o[27]
*234 wbs_dat_o[28]
*235 wbs_dat_o[29]
*236 wbs_dat_o[2]
*237 wbs_dat_o[30]
*238 wbs_dat_o[31]
*239 wbs_dat_o[3]
*240 wbs_dat_o[4]
*241 wbs_dat_o[5]
*242 wbs_dat_o[6]
*243 wbs_dat_o[7]
*244 wbs_dat_o[8]
*245 wbs_dat_o[9]
*246 wbs_sel_i[0]
*247 wbs_sel_i[1]
*248 wbs_sel_i[2]
*249 wbs_sel_i[3]
*250 wbs_stb_i
*251 wbs_we_i
*252 x1\[0\]
*253 x1\[10\]
*254 x1\[11\]
*255 x1\[12\]
*256 x1\[13\]
*257 x1\[14\]
*258 x1\[15\]
*259 x1\[1\]
*260 x1\[2\]
*261 x1\[3\]
*262 x1\[4\]
*263 x1\[5\]
*264 x1\[6\]
*265 x1\[7\]
*266 x1\[8\]
*267 x1\[9\]
*268 x2\[0\]
*269 x2\[10\]
*270 x2\[11\]
*271 x2\[12\]
*272 x2\[13\]
*273 x2\[14\]
*274 x2\[15\]
*275 x2\[1\]
*276 x2\[2\]
*277 x2\[3\]
*278 x2\[4\]
*279 x2\[5\]
*280 x2\[6\]
*281 x2\[7\]
*282 x2\[8\]
*283 x2\[9\]
*284 x3\[0\]
*285 x3\[10\]
*286 x3\[11\]
*287 x3\[12\]
*288 x3\[13\]
*289 x3\[14\]
*290 x3\[15\]
*291 x3\[1\]
*292 x3\[2\]
*293 x3\[3\]
*294 x3\[4\]
*295 x3\[5\]
*296 x3\[6\]
*297 x3\[7\]
*298 x3\[8\]
*299 x3\[9\]
*300 x4\[0\]
*301 x4\[10\]
*302 x4\[11\]
*303 x4\[12\]
*304 x4\[13\]
*305 x4\[14\]
*306 x4\[15\]
*307 x4\[1\]
*308 x4\[2\]
*309 x4\[3\]
*310 x4\[4\]
*311 x4\[5\]
*312 x4\[6\]
*313 x4\[7\]
*314 x4\[8\]
*315 x4\[9\]
*316 x5\[0\]
*317 x5\[10\]
*318 x5\[11\]
*319 x5\[12\]
*320 x5\[13\]
*321 x5\[14\]
*322 x5\[15\]
*323 x5\[1\]
*324 x5\[2\]
*325 x5\[3\]
*326 x5\[4\]
*327 x5\[5\]
*328 x5\[6\]
*329 x5\[7\]
*330 x5\[8\]
*331 x5\[9\]
*332 mprj1
*333 mprj2
*334 mprj3
*335 mprj4
*336 mprj5
*337 ro11
*338 ro12
*339 ro13
*340 ro14
*341 ro15
*342 ro3
*343 ro4
*344 ro5
*345 ro6
*346 ro7

*PORTS
analog_io[0] I
analog_io[10] I
analog_io[11] I
analog_io[12] I
analog_io[13] I
analog_io[14] I
analog_io[15] I
analog_io[16] I
analog_io[17] I
analog_io[18] I
analog_io[19] I
analog_io[1] I
analog_io[20] I
analog_io[21] I
analog_io[22] I
analog_io[23] I
analog_io[24] I
analog_io[25] I
analog_io[26] I
analog_io[27] I
analog_io[28] I
analog_io[2] I
analog_io[3] I
analog_io[4] I
analog_io[5] I
analog_io[6] I
analog_io[7] I
analog_io[8] I
analog_io[9] I
io_in[0] I
io_in[10] I
io_in[11] I
io_in[12] I
io_in[13] I
io_in[14] I
io_in[15] I
io_in[16] I
io_in[17] I
io_in[18] I
io_in[19] I
io_in[1] I
io_in[20] I
io_in[21] I
io_in[22] I
io_in[23] I
io_in[24] I
io_in[25] I
io_in[26] I
io_in[27] I
io_in[28] I
io_in[29] I
io_in[2] I
io_in[30] I
io_in[31] I
io_in[32] I
io_in[33] I
io_in[34] I
io_in[35] I
io_in[36] I
io_in[37] I
io_in[3] I
io_in[4] I
io_in[5] I
io_in[6] I
io_in[7] I
io_in[8] I
io_in[9] I
io_oeb[0] O
io_oeb[10] O
io_oeb[11] O
io_oeb[12] O
io_oeb[13] O
io_oeb[14] O
io_oeb[15] O
io_oeb[16] O
io_oeb[17] O
io_oeb[18] O
io_oeb[19] O
io_oeb[1] O
io_oeb[20] O
io_oeb[21] O
io_oeb[22] O
io_oeb[23] O
io_oeb[24] O
io_oeb[25] O
io_oeb[26] O
io_oeb[27] O
io_oeb[28] O
io_oeb[29] O
io_oeb[2] O
io_oeb[30] O
io_oeb[31] O
io_oeb[32] O
io_oeb[33] O
io_oeb[34] O
io_oeb[35] O
io_oeb[36] O
io_oeb[37] O
io_oeb[3] O
io_oeb[4] O
io_oeb[5] O
io_oeb[6] O
io_oeb[7] O
io_oeb[8] O
io_oeb[9] O
io_out[0] O
io_out[10] O
io_out[11] O
io_out[12] O
io_out[13] O
io_out[14] O
io_out[15] O
io_out[16] O
io_out[17] O
io_out[18] O
io_out[19] O
io_out[1] O
io_out[20] O
io_out[21] O
io_out[22] O
io_out[23] O
io_out[24] O
io_out[25] O
io_out[26] O
io_out[27] O
io_out[28] O
io_out[29] O
io_out[2] O
io_out[30] O
io_out[31] O
io_out[32] O
io_out[33] O
io_out[34] O
io_out[35] O
io_out[36] O
io_out[37] O
io_out[3] O
io_out[4] O
io_out[5] O
io_out[6] O
io_out[7] O
io_out[8] O
io_out[9] O
wb_clk_i I
wb_rst_i I
wbs_ack_o O
wbs_adr_i[0] I
wbs_adr_i[10] I
wbs_adr_i[11] I
wbs_adr_i[12] I
wbs_adr_i[13] I
wbs_adr_i[14] I
wbs_adr_i[15] I
wbs_adr_i[16] I
wbs_adr_i[17] I
wbs_adr_i[18] I
wbs_adr_i[19] I
wbs_adr_i[1] I
wbs_adr_i[20] I
wbs_adr_i[21] I
wbs_adr_i[22] I
wbs_adr_i[23] I
wbs_adr_i[24] I
wbs_adr_i[25] I
wbs_adr_i[26] I
wbs_adr_i[27] I
wbs_adr_i[28] I
wbs_adr_i[29] I
wbs_adr_i[2] I
wbs_adr_i[30] I
wbs_adr_i[31] I
wbs_adr_i[3] I
wbs_adr_i[4] I
wbs_adr_i[5] I
wbs_adr_i[6] I
wbs_adr_i[7] I
wbs_adr_i[8] I
wbs_adr_i[9] I
wbs_cyc_i I
wbs_dat_i[0] I
wbs_dat_i[10] I
wbs_dat_i[11] I
wbs_dat_i[12] I
wbs_dat_i[13] I
wbs_dat_i[14] I
wbs_dat_i[15] I
wbs_dat_i[16] I
wbs_dat_i[17] I
wbs_dat_i[18] I
wbs_dat_i[19] I
wbs_dat_i[1] I
wbs_dat_i[20] I
wbs_dat_i[21] I
wbs_dat_i[22] I
wbs_dat_i[23] I
wbs_dat_i[24] I
wbs_dat_i[25] I
wbs_dat_i[26] I
wbs_dat_i[27] I
wbs_dat_i[28] I
wbs_dat_i[29] I
wbs_dat_i[2] I
wbs_dat_i[30] I
wbs_dat_i[31] I
wbs_dat_i[3] I
wbs_dat_i[4] I
wbs_dat_i[5] I
wbs_dat_i[6] I
wbs_dat_i[7] I
wbs_dat_i[8] I
wbs_dat_i[9] I
wbs_dat_o[0] O
wbs_dat_o[10] O
wbs_dat_o[11] O
wbs_dat_o[12] O
wbs_dat_o[13] O
wbs_dat_o[14] O
wbs_dat_o[15] O
wbs_dat_o[16] O
wbs_dat_o[17] O
wbs_dat_o[18] O
wbs_dat_o[19] O
wbs_dat_o[1] O
wbs_dat_o[20] O
wbs_dat_o[21] O
wbs_dat_o[22] O
wbs_dat_o[23] O
wbs_dat_o[24] O
wbs_dat_o[25] O
wbs_dat_o[26] O
wbs_dat_o[27] O
wbs_dat_o[28] O
wbs_dat_o[29] O
wbs_dat_o[2] O
wbs_dat_o[30] O
wbs_dat_o[31] O
wbs_dat_o[3] O
wbs_dat_o[4] O
wbs_dat_o[5] O
wbs_dat_o[6] O
wbs_dat_o[7] O
wbs_dat_o[8] O
wbs_dat_o[9] O
wbs_sel_i[0] I
wbs_sel_i[1] I
wbs_sel_i[2] I
wbs_sel_i[3] I
wbs_stb_i I
wbs_we_i I

*D_NET *30 0.385741
*CONN
*P io_in[0] I
*I *339:s1 I *D sky130_osu_ring_oscillator_mpr2ea_8_b0r2
*I *338:s1 I *D sky130_osu_ring_oscillator_mpr2ct_8_b0r2
*I *345:s1 I *D sky130_osu_ring_oscillator_mpr2et_8_b0r1
*I *342:s1 I *D sky130_osu_ring_oscillator_mpr2ca_8_b0r1
*I *343:s1 I *D sky130_osu_ring_oscillator_mpr2ct_8_b0r1
*I *344:s1 I *D sky130_osu_ring_oscillator_mpr2ea_8_b0r1
*I *346:s1 I *D sky130_osu_ring_oscillator_mpr2xa_8_b0r1
*I *337:s1 I *D sky130_osu_ring_oscillator_mpr2ca_8_b0r2
*I *340:s1 I *D sky130_osu_ring_oscillator_mpr2et_8_b0r2
*I *341:s1 I *D sky130_osu_ring_oscillator_mpr2xa_8_b0r2
*CAP
1 io_in[0] 0.0748016
2 *339:s1 0.00047502
3 *338:s1 8.40196e-05
4 *345:s1 0.000532172
5 *342:s1 0.00012398
6 *343:s1 9.15124e-06
7 *344:s1 0.000327457
8 *346:s1 0.00181112
9 *337:s1 0.000216906
10 *340:s1 0
11 *341:s1 0.000456844
12 *30:220 0.00435008
13 *30:218 0.00521859
14 *30:197 0.00226997
15 *30:187 0.00506501
16 *30:166 0.00480213
17 *30:160 0.00524604
18 *30:158 0.00488883
19 *30:150 0.000852952
20 *30:148 0.00441786
21 *30:146 0.00560158
22 *30:114 0.0186983
23 *30:112 0.0189903
24 *30:88 0.00415544
25 *30:86 0.00316668
26 *30:82 0.000854832
27 *30:72 0.00493671
28 *30:70 0.00431338
29 *30:68 0.0010193
30 *30:64 0.00387859
31 *30:57 0.000566854
32 *30:49 0.0041104
33 *30:45 0.00428086
34 *30:43 0.00493229
35 *30:19 0.00383888
36 *30:9 0.0458575
37 *30:7 0.0433361
38 *30:5 0.0748016
39 *337:s1 *337:start 6.88503e-05
40 *337:s1 *41:133 0.000189037
41 *338:s1 *338:s2 7.88591e-05
42 *345:s1 *345:start 8.80481e-05
43 *346:s1 *264:10 0
44 *30:19 *41:39 0.00169921
45 *30:19 *61:25 0.00239034
46 *30:19 *62:21 0.000828505
47 *30:57 *340:start 0.000100486
48 *30:64 *41:95 0.00701898
49 *30:64 *41:111 0.000367405
50 *30:82 *41:115 0
51 *30:86 *338:s2 0.000321419
52 *30:86 *338:start 1.1382e-05
53 *30:88 *41:129 0.0086597
54 *30:112 *41:129 6.43792e-05
55 *30:114 *264:10 0
56 *30:148 *41:172 0
57 *30:148 *41:180 0
58 *30:158 *345:start 0.000323904
59 *30:158 *41:180 0.000230362
60 *30:160 *41:180 1.05441e-05
61 *30:160 *41:186 0
62 *30:197 *41:231 0
*RES
1 io_in[0] *30:5 256.812 
2 *30:5 *30:7 8 
3 *30:7 *30:9 1003.05 
4 *30:9 *30:19 29.3467 
5 *30:19 *341:s1 40.2173 
6 *30:19 *30:43 23.4494 
7 *30:43 *30:45 93.7321 
8 *30:45 *30:49 4.19464 
9 *30:49 *30:57 28.3607 
10 *30:57 *340:s1 23 
11 *30:49 *30:64 111.598 
12 *30:64 *30:68 10.0309 
13 *30:68 *30:70 8 
14 *30:70 *30:72 99.4493 
15 *30:72 *30:82 37.3288 
16 *30:82 *30:86 18.9564 
17 *30:86 *30:88 110.014 
18 *30:88 *337:s1 21.4525 
19 *30:88 *30:112 22.1995 
20 *30:112 *30:114 418.719 
21 *30:114 *346:s1 14.5518 
22 *346:s1 *30:146 43.8648 
23 *30:146 *30:148 101.386 
24 *30:148 *30:150 15 
25 *30:150 *30:158 25.0568 
26 *30:158 *30:160 105.26 
27 *30:160 *30:166 44.9143 
28 *30:166 *344:s1 33.8386 
29 *30:166 *30:187 87.4764 
30 *30:187 *30:197 37.4606 
31 *30:197 *343:s1 15.2589 
32 *30:197 *30:218 27.9059 
33 *30:218 *30:220 97.6679 
34 *30:220 *342:s1 2.22679 
35 *30:150 *345:s1 35.3457 
36 *30:82 *338:s1 2.35107 
37 *30:68 *339:s1 13.4244 
*END

*D_NET *41 0.396166
*CONN
*P io_in[1] I
*I *346:s2 I *D sky130_osu_ring_oscillator_mpr2xa_8_b0r1
*I *345:s2 I *D sky130_osu_ring_oscillator_mpr2et_8_b0r1
*I *343:s2 I *D sky130_osu_ring_oscillator_mpr2ct_8_b0r1
*I *342:s2 I *D sky130_osu_ring_oscillator_mpr2ca_8_b0r1
*I *344:s2 I *D sky130_osu_ring_oscillator_mpr2ea_8_b0r1
*I *337:s2 I *D sky130_osu_ring_oscillator_mpr2ca_8_b0r2
*I *338:s2 I *D sky130_osu_ring_oscillator_mpr2ct_8_b0r2
*I *339:s2 I *D sky130_osu_ring_oscillator_mpr2ea_8_b0r2
*I *340:s2 I *D sky130_osu_ring_oscillator_mpr2et_8_b0r2
*I *341:s2 I *D sky130_osu_ring_oscillator_mpr2xa_8_b0r2
*CAP
1 io_in[1] 0.000910578
2 *346:s2 8.96176e-05
3 *345:s2 0.00230503
4 *343:s2 0.00038005
5 *342:s2 0.000988855
6 *344:s2 3.77271e-05
7 *337:s2 3.10164e-05
8 *338:s2 0.000989751
9 *339:s2 0.00121985
10 *340:s2 0.000716612
11 *341:s2 0.000169189
12 *41:233 0.0051901
13 *41:231 0.00646933
14 *41:223 0.00315361
15 *41:219 0.00464212
16 *41:217 0.0046659
17 *41:192 0.00162919
18 *41:188 0.00450268
19 *41:186 0.00452344
20 *41:180 0.0048816
21 *41:172 0.00556031
22 *41:170 0.00581945
23 *41:158 0.00195394
24 *41:152 0.0184995
25 *41:150 0.0189663
26 *41:133 0.00152912
27 *41:129 0.00403008
28 *41:115 0.00494186
29 *41:111 0.00471334
30 *41:95 0.00751481
31 *41:93 0.00463761
32 *41:82 6.21287e-06
33 *41:65 0.00579115
34 *41:59 0.00597532
35 *41:57 0.0031088
36 *41:39 0.0024493
37 *41:21 0.00307976
38 *41:13 0.0717709
39 *41:11 0.0709713
40 *41:9 0.0342312
41 *41:7 0.0351418
42 *339:s2 *339:start 4.49581e-06
43 *342:s2 *342:start 2.57464e-05
44 *343:s2 *261:11 0.000409616
45 *346:s2 *280:8 0
46 *41:13 *52:13 0
47 *41:21 *52:13 0.00011031
48 *41:21 *52:23 1.53948e-05
49 *41:21 *257:26 0
50 *41:21 *273:18 0
51 *41:39 *52:23 0.00472853
52 *41:39 *61:25 0.00287165
53 *41:39 *62:39 0.000431777
54 *41:59 *61:41 0.00859129
55 *41:59 *62:41 0
56 *41:59 *62:60 0
57 *41:65 *340:s3 0.000668826
58 *41:65 *340:s4 0.000759359
59 *41:65 *61:45 0.000720395
60 *41:152 *280:8 0
61 *41:158 *280:8 0
62 *337:s1 *41:133 0.000189037
63 *338:s1 *338:s2 7.88591e-05
64 *30:19 *41:39 0.00169921
65 *30:64 *41:95 0.00701898
66 *30:64 *41:111 0.000367405
67 *30:82 *41:115 0
68 *30:86 *338:s2 0.000321419
69 *30:88 *41:129 0.0086597
70 *30:112 *41:129 6.43792e-05
71 *30:148 *41:172 0
72 *30:148 *41:180 0
73 *30:158 *41:180 0.000230362
74 *30:160 *41:180 1.05441e-05
75 *30:160 *41:186 0
76 *30:197 *41:231 0
*RES
1 io_in[1] *41:7 11.0763 
2 *41:7 *41:9 792.466 
3 *41:9 *41:11 8 
4 *41:11 *41:13 249.327 
5 *41:13 *41:21 27.9674 
6 *41:21 *41:39 47.1962 
7 *41:39 *341:s2 33.9409 
8 *41:21 *41:57 8 
9 *41:57 *41:59 109.309 
10 *41:59 *41:65 27.9915 
11 *41:65 *340:s2 29.4749 
12 *340:s2 *41:82 0.150179 
13 *41:65 *41:93 28.5329 
14 *41:93 *41:95 89.0611 
15 *41:95 *339:s2 42.4568 
16 *41:95 *41:111 90.1175 
17 *41:111 *41:115 19.2539 
18 *41:115 *338:s2 38.6661 
19 *41:115 *41:129 111.07 
20 *41:129 *41:133 37.0607 
21 *41:133 *337:s2 23.8648 
22 *41:133 *41:150 28.0293 
23 *41:150 *41:152 425.71 
24 *41:152 *41:158 3.045 
25 *41:158 *41:170 23.3266 
26 *41:170 *41:172 94.0843 
27 *41:172 *41:180 38.2875 
28 *41:180 *41:186 32.5671 
29 *41:186 *41:188 79.6154 
30 *41:188 *41:192 38.49 
31 *41:192 *344:s2 30.9736 
32 *41:192 *41:217 38.5078 
33 *41:217 *41:219 95.2236 
34 *41:219 *41:223 9.42987 
35 *41:223 *41:231 34.7889 
36 *41:231 *41:233 97.1396 
37 *41:233 *342:s2 37.0296 
38 *41:223 *343:s2 18.7093 
39 *41:180 *345:s2 36.9414 
40 *41:158 *346:s2 2.18536 
*END

*D_NET *52 0.428702
*CONN
*P io_in[2] I
*I *346:s3 I *D sky130_osu_ring_oscillator_mpr2xa_8_b0r1
*I *342:s3 I *D sky130_osu_ring_oscillator_mpr2ca_8_b0r1
*I *343:s3 I *D sky130_osu_ring_oscillator_mpr2ct_8_b0r1
*I *344:s3 I *D sky130_osu_ring_oscillator_mpr2ea_8_b0r1
*I *345:s3 I *D sky130_osu_ring_oscillator_mpr2et_8_b0r1
*I *337:s3 I *D sky130_osu_ring_oscillator_mpr2ca_8_b0r2
*I *338:s3 I *D sky130_osu_ring_oscillator_mpr2ct_8_b0r2
*I *339:s3 I *D sky130_osu_ring_oscillator_mpr2ea_8_b0r2
*I *340:s3 I *D sky130_osu_ring_oscillator_mpr2et_8_b0r2
*I *341:s3 I *D sky130_osu_ring_oscillator_mpr2xa_8_b0r2
*CAP
1 io_in[2] 0.00998074
2 *346:s3 0.000810319
3 *342:s3 0.00216045
4 *343:s3 0.0029011
5 *344:s3 0.000105363
6 *345:s3 0.0022122
7 *337:s3 0.000471793
8 *338:s3 0.00226151
9 *339:s3 0.0023283
10 *340:s3 0.00198514
11 *341:s3 0.000112879
12 *52:277 0.00597224
13 *52:275 0.00418565
14 *52:244 0.00726636
15 *52:242 0.0043662
16 *52:228 0.00287175
17 *52:210 0.00635058
18 *52:208 0.0032094
19 *52:180 0.00289399
20 *52:176 0.00369551
21 *52:174 0.00367168
22 *52:168 0.00350773
23 *52:160 0.0188155
24 *52:158 0.0158345
25 *52:151 0
26 *52:136 0.00326367
27 *52:132 0.00340792
28 *52:126 0.00338991
29 *52:124 0.00209478
30 *52:103 0.00243752
31 *52:99 0.00280263
32 *52:97 0.00279952
33 *52:71 0.00250119
34 *52:69 0.00310927
35 *52:67 0.00310927
36 *52:43 0.00252367
37 *52:39 0.00376035
38 *52:37 0.00322182
39 *52:23 0.00243553
40 *52:13 0.0651751
41 *52:11 0.0628524
42 *52:9 0.0256273
43 *52:7 0.0356081
44 *338:s3 *338:s4 0.00167299
45 *338:s3 *61:109 4.21385e-05
46 *339:s3 *339:s4 0.00224093
47 *339:s3 *61:103 3.92141e-05
48 *340:s3 *340:s4 0.00139623
49 *340:s3 *61:45 7.08078e-05
50 *340:s3 *62:60 0.000123525
51 *342:s3 *342:s4 0.00224056
52 *345:s3 *62:190 0.000121504
53 *345:s3 *310:22 0.000597438
54 *346:s3 *296:11 0
55 *52:23 *61:25 0.000493829
56 *52:23 *61:39 0.000805165
57 *52:39 *61:41 0.00897606
58 *52:39 *256:14 0
59 *52:39 *273:18 0
60 *52:43 *61:45 0.00137603
61 *52:43 *62:60 0.000165256
62 *52:69 *61:73 0.00810063
63 *52:97 *61:103 0.000342968
64 *52:99 *61:105 0.00837525
65 *52:99 *270:18 0.00176205
66 *52:103 *61:109 0.000341855
67 *52:126 *61:130 0.00549427
68 *52:126 *62:104 2.31765e-05
69 *52:126 *270:18 0
70 *52:132 *61:130 0.000306044
71 *52:132 *61:138 0.00136377
72 *52:132 *62:126 2.55817e-05
73 *52:132 *62:128 0
74 *52:132 *270:18 0
75 *52:136 *61:138 0
76 *52:160 *296:11 0
77 *52:160 *296:13 0.0124134
78 *52:168 *346:s4 0
79 *52:168 *61:183 0.00120285
80 *52:168 *62:136 0
81 *52:168 *264:14 0.000995699
82 *52:168 *270:18 0
83 *52:174 *61:183 0.000269109
84 *52:174 *295:22 0.0004006
85 *52:176 *61:185 0.00755791
86 *52:176 *61:205 0.000656811
87 *52:176 *326:11 5.99528e-05
88 *52:180 *61:205 0.000274019
89 *52:180 *62:190 1.83344e-06
90 *52:180 *310:22 0.0004006
91 *52:210 *61:207 0.00810648
92 *52:210 *62:204 0.00103874
93 *52:228 *61:211 0
94 *52:242 *62:204 0.000521597
95 *52:244 *61:259 0.00199332
96 *52:244 *62:204 0
97 *52:244 *62:208 0
98 *52:275 *61:259 0.000492797
99 *52:277 *342:s5 0
100 *52:277 *61:259 0
101 *52:277 *61:263 0.00220467
102 *52:277 *62:236 0
103 *41:13 *52:13 0
104 *41:21 *52:13 0.00011031
105 *41:21 *52:23 1.53948e-05
106 *41:39 *52:23 0.00472853
107 *41:65 *340:s3 0.000668826
*RES
1 io_in[2] *52:7 43.2763 
2 *52:7 *52:9 593.154 
3 *52:9 *52:11 8 
4 *52:11 *52:13 218.157 
5 *52:13 *52:23 41.4787 
6 *52:23 *341:s3 17.6566 
7 *52:13 *52:37 8 
8 *52:37 *52:39 114.944 
9 *52:39 *52:43 10.7179 
10 *52:43 *340:s3 44.9625 
11 *52:43 *52:67 8 
12 *52:67 *52:69 104.379 
13 *52:69 *52:71 8 
14 *52:71 *339:s3 41.854 
15 *52:71 *52:97 8.65707 
16 *52:97 *52:99 107.196 
17 *52:99 *52:103 8.65707 
18 *52:103 *338:s3 37.2721 
19 *52:103 *52:124 8 
20 *52:124 *52:126 71.3193 
21 *52:126 *52:132 45.12 
22 *52:132 *52:136 15.0112 
23 *52:136 *337:s3 25.4245 
24 *337:s3 *52:151 0.238824 
25 *52:136 *52:158 15.3907 
26 *52:158 *52:160 400.821 
27 *52:160 *52:168 47.4627 
28 *52:168 *52:174 18.1168 
29 *52:174 *52:176 107.196 
30 *52:176 *52:180 10.2027 
31 *52:180 *345:s3 40.2989 
32 *52:180 *52:208 8 
33 *52:208 *52:210 111.422 
34 *52:210 *52:228 49.9533 
35 *52:228 *344:s3 2.50125 
36 *52:210 *52:242 10.7714 
37 *52:242 *52:244 100.526 
38 *52:244 *343:s3 48.6914 
39 *52:244 *52:275 23.1406 
40 *52:275 *52:277 101.562 
41 *52:277 *342:s3 46.8953 
42 *52:160 *346:s3 27.2528 
*END

*D_NET *61 0.420674
*CONN
*P io_in[3] I
*I *342:s4 I *D sky130_osu_ring_oscillator_mpr2ca_8_b0r1
*I *343:s4 I *D sky130_osu_ring_oscillator_mpr2ct_8_b0r1
*I *344:s4 I *D sky130_osu_ring_oscillator_mpr2ea_8_b0r1
*I *345:s4 I *D sky130_osu_ring_oscillator_mpr2et_8_b0r1
*I *346:s4 I *D sky130_osu_ring_oscillator_mpr2xa_8_b0r1
*I *337:s4 I *D sky130_osu_ring_oscillator_mpr2ca_8_b0r2
*I *338:s4 I *D sky130_osu_ring_oscillator_mpr2ct_8_b0r2
*I *339:s4 I *D sky130_osu_ring_oscillator_mpr2ea_8_b0r2
*I *340:s4 I *D sky130_osu_ring_oscillator_mpr2et_8_b0r2
*I *341:s4 I *D sky130_osu_ring_oscillator_mpr2xa_8_b0r2
*CAP
1 io_in[3] 0.074292
2 *342:s4 0.00123315
3 *343:s4 0.000463426
4 *344:s4 0.000407698
5 *345:s4 0.00119966
6 *346:s4 0.000500376
7 *337:s4 0.000150758
8 *338:s4 0.00109984
9 *339:s4 0.00136602
10 *340:s4 0.00101419
11 *341:s4 0.000115878
12 *61:263 0.00312658
13 *61:261 0.0019834
14 *61:259 0.00292112
15 *61:257 0.00408326
16 *61:237 0.00185394
17 *61:233 0.00406443
18 *61:231 0.00392603
19 *61:211 0.00151675
20 *61:207 0.00434585
21 *61:205 0.00394569
22 *61:185 0.00329199
23 *61:183 0.0035066
24 *61:157 0.00262354
25 *61:155 0.0124577
26 *61:153 0.0125763
27 *61:138 0.00172484
28 *61:130 0.00258732
29 *61:128 0.00113179
30 *61:109 0.00134749
31 *61:105 0.00321892
32 *61:103 0.0032171
33 *61:75 0.00161185
34 *61:73 0.00306183
35 *61:71 0.00306183
36 *61:45 0.00141236
37 *61:41 0.00187684
38 *61:39 0.00183113
39 *61:32 6.21287e-06
40 *61:25 0.00102834
41 *61:11 0.00127113
42 *61:9 0.0138576
43 *61:7 0.0138576
44 *61:5 0.074292
45 *343:s4 *309:8 0
46 *61:9 *62:9 0.0139759
47 *61:9 *62:39 0.000172947
48 *61:25 *62:21 0.000448212
49 *61:41 *62:60 0
50 *61:73 *62:74 0.000301728
51 *61:105 *270:18 2.31765e-05
52 *61:130 *62:104 0.00661482
53 *61:138 *62:104 1.34654e-05
54 *61:138 *62:108 0.000411489
55 *61:138 *62:126 0.000327411
56 *61:155 *312:9 0.0291469
57 *61:183 *62:136 0
58 *61:183 *62:156 0.00106279
59 *61:185 *62:158 0.00718538
60 *61:185 *326:11 0.000237855
61 *61:205 *62:190 0.000204078
62 *61:205 *326:11 0.000315657
63 *61:259 *62:208 0
64 *61:259 *62:234 0
65 *61:259 *62:236 0
66 *338:s3 *338:s4 0.00167299
67 *338:s3 *61:109 4.21385e-05
68 *339:s3 *339:s4 0.00224093
69 *339:s3 *61:103 3.92141e-05
70 *340:s3 *340:s4 0.00139623
71 *340:s3 *61:45 7.08078e-05
72 *342:s3 *342:s4 0.00224056
73 *30:19 *61:25 0.00239034
74 *41:39 *61:25 0.00287165
75 *41:59 *61:41 0.00859129
76 *41:65 *340:s4 0.000759359
77 *41:65 *61:45 0.000720395
78 *52:23 *61:25 0.000493829
79 *52:23 *61:39 0.000805165
80 *52:39 *61:41 0.00897606
81 *52:43 *61:45 0.00137603
82 *52:69 *61:73 0.00810063
83 *52:97 *61:103 0.000342968
84 *52:99 *61:105 0.00837525
85 *52:103 *61:109 0.000341855
86 *52:126 *61:130 0.00549427
87 *52:132 *61:130 0.000306044
88 *52:132 *61:138 0.00136377
89 *52:136 *61:138 0
90 *52:168 *346:s4 0
91 *52:168 *61:183 0.00120285
92 *52:174 *61:183 0.000269109
93 *52:176 *61:185 0.00755791
94 *52:176 *61:205 0.000656811
95 *52:180 *61:205 0.000274019
96 *52:210 *61:207 0.00810648
97 *52:228 *61:211 0
98 *52:244 *61:259 0.00199332
99 *52:275 *61:259 0.000492797
100 *52:277 *61:259 0
101 *52:277 *61:263 0.00220467
*RES
1 io_in[3] *61:5 254.923 
2 *61:5 *61:7 8 
3 *61:7 *61:9 386.094 
4 *61:9 *61:11 8 
5 *61:11 *61:25 35.9298 
6 *61:25 *341:s4 17.4339 
7 *341:s4 *61:32 0.150179 
8 *61:11 *61:39 9.51573 
9 *61:39 *61:41 114.944 
10 *61:41 *61:45 10.7179 
11 *61:45 *340:s4 41.9112 
12 *61:45 *61:71 8 
13 *61:71 *61:73 105.788 
14 *61:73 *61:75 8 
15 *61:75 *339:s4 39.8141 
16 *61:75 *61:103 8.8288 
17 *61:103 *61:105 107.196 
18 *61:105 *61:109 8.8288 
19 *61:109 *338:s4 34.5342 
20 *61:109 *61:128 8 
21 *61:128 *61:130 83.955 
22 *61:130 *61:138 30.6412 
23 *61:138 *337:s4 8.7504 
24 *61:138 *61:153 8.62533 
25 *61:153 *61:155 424.125 
26 *61:155 *61:157 8 
27 *61:157 *346:s4 13.3846 
28 *61:157 *61:183 46.1278 
29 *61:183 *61:185 98.9211 
30 *61:185 *345:s4 41.1518 
31 *61:185 *61:205 26.4513 
32 *61:205 *61:207 107.196 
33 *61:207 *61:211 12.0917 
34 *61:211 *344:s4 11.846 
35 *61:211 *61:231 8 
36 *61:231 *61:233 89.5893 
37 *61:233 *61:237 8.48533 
38 *61:237 *343:s4 33.1914 
39 *61:237 *61:257 12.4165 
40 *61:257 *61:259 75.1929 
41 *61:259 *61:261 2.05071 
42 *61:261 *61:263 57.5029 
43 *61:263 *342:s4 42.6896 
*END

*D_NET *62 0.317703
*CONN
*P io_in[4] I
*I *342:s5 I *D sky130_osu_ring_oscillator_mpr2ca_8_b0r1
*I *343:s5 I *D sky130_osu_ring_oscillator_mpr2ct_8_b0r1
*I *344:s5 I *D sky130_osu_ring_oscillator_mpr2ea_8_b0r1
*I *345:s5 I *D sky130_osu_ring_oscillator_mpr2et_8_b0r1
*I *346:s5 I *D sky130_osu_ring_oscillator_mpr2xa_8_b0r1
*I *337:s5 I *D sky130_osu_ring_oscillator_mpr2ca_8_b0r2
*I *338:s5 I *D sky130_osu_ring_oscillator_mpr2ct_8_b0r2
*I *339:s5 I *D sky130_osu_ring_oscillator_mpr2ea_8_b0r2
*I *340:s5 I *D sky130_osu_ring_oscillator_mpr2et_8_b0r2
*I *341:s5 I *D sky130_osu_ring_oscillator_mpr2xa_8_b0r2
*CAP
1 io_in[4] 0.0743288
2 *342:s5 0.000248493
3 *343:s5 0.000164081
4 *344:s5 0.00474273
5 *345:s5 0.00157769
6 *346:s5 0.000250198
7 *337:s5 0.000241661
8 *338:s5 8.21278e-05
9 *339:s5 0.0041545
10 *340:s5 0.000252334
11 *341:s5 0.000119306
12 *62:236 0.00466353
13 *62:234 0.00506888
14 *62:208 0.00145083
15 *62:204 0.00429246
16 *62:202 0.0039334
17 *62:190 0.00543243
18 *62:158 0.00199951
19 *62:156 0.00260814
20 *62:136 0.00223719
21 *62:128 0.0188687
22 *62:126 0.0184216
23 *62:115 3.4245e-06
24 *62:108 0.00105754
25 *62:104 0.00286941
26 *62:102 0.00340038
27 *62:74 0.00554768
28 *62:72 0.00466428
29 *62:60 0.00584116
30 *62:41 0.00635733
31 *62:39 0.00470235
32 *62:21 0.00102692
33 *62:9 0.00630262
34 *62:7 0.0048791
35 *62:5 0.0743288
36 *337:s5 *269:7 0
37 *337:s5 *317:9 0
38 *340:s5 *320:7 0
39 *345:s5 *327:9 1.13134e-05
40 *62:74 *270:18 0
41 *62:102 *270:18 0
42 *62:115 *269:7 0
43 *62:128 *270:18 0
44 *62:136 *264:20 0.000335313
45 *62:136 *328:8 0
46 *62:158 *326:11 0.00723659
47 *340:s3 *62:60 0.000123525
48 *345:s3 *62:190 0.000121504
49 *30:19 *62:21 0.000828505
50 *41:39 *62:39 0.000431777
51 *41:59 *62:41 0
52 *41:59 *62:60 0
53 *52:43 *62:60 0.000165256
54 *52:126 *62:104 2.31765e-05
55 *52:132 *62:126 2.55817e-05
56 *52:132 *62:128 0
57 *52:168 *62:136 0
58 *52:180 *62:190 1.83344e-06
59 *52:210 *62:204 0.00103874
60 *52:242 *62:204 0.000521597
61 *52:244 *62:204 0
62 *52:244 *62:208 0
63 *52:277 *342:s5 0
64 *52:277 *62:236 0
65 *61:9 *62:9 0.0139759
66 *61:9 *62:39 0.000172947
67 *61:25 *62:21 0.000448212
68 *61:41 *62:60 0
69 *61:73 *62:74 0.000301728
70 *61:130 *62:104 0.00661482
71 *61:138 *62:104 1.34654e-05
72 *61:138 *62:108 0.000411489
73 *61:138 *62:126 0.000327411
74 *61:183 *62:136 0
75 *61:183 *62:156 0.00106279
76 *61:185 *62:158 0.00718538
77 *61:205 *62:190 0.000204078
78 *61:259 *62:208 0
79 *61:259 *62:234 0
80 *61:259 *62:236 0
*RES
1 io_in[4] *62:5 255.009 
2 *62:5 *62:7 8 
3 *62:7 *62:9 177.625 
4 *62:9 *62:21 39.3629 
5 *62:21 *341:s5 17.667 
6 *62:9 *62:39 23.3124 
7 *62:39 *62:41 92.5825 
8 *62:41 *340:s5 20.3857 
9 *62:41 *62:60 41.5674 
10 *62:60 *339:s5 89.7654 
11 *339:s5 *62:72 19.8368 
12 *62:72 *62:74 104.027 
13 *62:74 *338:s5 16.5639 
14 *62:74 *62:102 32.163 
15 *62:102 *62:104 85.6536 
16 *62:104 *62:108 11.5068 
17 *62:108 *337:s5 19.9093 
18 *337:s5 *62:115 0.225556 
19 *62:108 *62:126 9.3525 
20 *62:126 *62:128 418.719 
21 *62:128 *62:136 33.6532 
22 *62:136 *346:s5 5.70679 
23 *62:136 *62:156 42.9197 
24 *62:156 *62:158 93.2868 
25 *62:158 *345:s5 42.8014 
26 *345:s5 *62:190 42.0977 
27 *62:190 *344:s5 101.738 
28 *344:s5 *62:202 20.7896 
29 *62:202 *62:204 90.8218 
30 *62:204 *62:208 14.1479 
31 *62:208 *343:s5 18.3143 
32 *62:208 *62:234 25.1369 
33 *62:234 *62:236 100.858 
34 *62:236 *342:s5 20.3443 
*END

*D_NET *63 0.261797
*CONN
*P io_in[5] I
*I *342:start I *D sky130_osu_ring_oscillator_mpr2ca_8_b0r1
*I *343:start I *D sky130_osu_ring_oscillator_mpr2ct_8_b0r1
*I *344:start I *D sky130_osu_ring_oscillator_mpr2ea_8_b0r1
*I *345:start I *D sky130_osu_ring_oscillator_mpr2et_8_b0r1
*I *346:start I *D sky130_osu_ring_oscillator_mpr2xa_8_b0r1
*I *337:start I *D sky130_osu_ring_oscillator_mpr2ca_8_b0r2
*I *338:start I *D sky130_osu_ring_oscillator_mpr2ct_8_b0r2
*I *339:start I *D sky130_osu_ring_oscillator_mpr2ea_8_b0r2
*I *340:start I *D sky130_osu_ring_oscillator_mpr2et_8_b0r2
*I *341:start I *D sky130_osu_ring_oscillator_mpr2xa_8_b0r2
*CAP
1 io_in[5] 0.00107084
2 *342:start 0.00054292
3 *343:start 0.000564627
4 *344:start 0.000641671
5 *345:start 0.000570014
6 *346:start 0.000625259
7 *337:start 0.000631191
8 *338:start 0.000632044
9 *339:start 0.00063244
10 *340:start 0.000595735
11 *341:start 0.000627004
12 *63:137 0.00525371
13 *63:132 0
14 *63:125 0.0100911
15 *63:111 0.0100545
16 *63:97 0.00991294
17 *63:83 0.0242674
18 *63:65 0.0241595
19 *63:53 0.00997478
20 *63:41 0.010054
21 *63:29 0.00840709
22 *63:17 0.00223732
23 *63:15 0.00471089
24 *63:13 0.0669233
25 *63:11 0.0679941
26 *337:s1 *337:start 6.88503e-05
27 *339:s2 *339:start 4.49581e-06
28 *342:s2 *342:start 2.57464e-05
29 *345:s1 *345:start 8.80481e-05
30 *30:57 *340:start 0.000100486
31 *30:86 *338:start 1.1382e-05
32 *30:158 *345:start 0.000323904
*RES
1 io_in[5] *63:11 29.3003 
2 *63:11 *63:13 1504.23 
3 *63:13 *63:15 15 
4 *63:15 *63:17 37.12 
5 *63:17 *341:start 28.8475 
6 *63:15 *63:29 71.2779 
7 *63:29 *340:start 28.2002 
8 *63:29 *63:41 108.957 
9 *63:41 *339:start 28.2675 
10 *63:41 *63:53 108.957 
11 *63:53 *338:start 28.3296 
12 *63:53 *63:65 106.844 
13 *63:65 *337:start 29.8418 
14 *63:65 *63:83 437.154 
15 *63:83 *346:start 28.4332 
16 *63:83 *63:97 108.957 
17 *63:97 *345:start 28.4954 
18 *63:97 *63:111 106.14 
19 *63:111 *344:start 28.8061 
20 *63:111 *63:125 110.366 
21 *63:125 *343:start 27.0557 
22 *343:start *63:132 0.156154 
23 *63:125 *63:137 108.957 
24 *63:137 *342:start 26.9832 
*END

*D_NET *64 0.121966
*CONN
*P io_in[6] I