*SPEF "ieee 1481-1999"
*DESIGN "user_project_wrapper"
*DATE "11:11:11 Fri 11 11, 1111"
*VENDOR "OpenRCX"
*PROGRAM "Parallel Extraction"
*VERSION "1.0"
*DESIGN_FLOW "NAME_SCOPE LOCAL" "PIN_CAP NONE"
*DIVIDER /
*DELIMITER :
*BUS_DELIMITER []
*T_UNIT 1 NS
*C_UNIT 1 PF
*R_UNIT 1 OHM
*L_UNIT 1 HENRY

*NAME_MAP
*1 analog_io[0]
*2 analog_io[10]
*3 analog_io[11]
*4 analog_io[12]
*5 analog_io[13]
*6 analog_io[14]
*7 analog_io[15]
*8 analog_io[16]
*9 analog_io[17]
*10 analog_io[18]
*11 analog_io[19]
*12 analog_io[1]
*13 analog_io[20]
*14 analog_io[21]
*15 analog_io[22]
*16 analog_io[23]
*17 analog_io[24]
*18 analog_io[25]
*19 analog_io[26]
*20 analog_io[27]
*21 analog_io[28]
*22 analog_io[2]
*23 analog_io[3]
*24 analog_io[4]
*25 analog_io[5]
*26 analog_io[6]
*27 analog_io[7]
*28 analog_io[8]
*29 analog_io[9]
*30 io_in[0]
*31 io_in[10]
*32 io_in[11]
*33 io_in[12]
*34 io_in[13]
*35 io_in[14]
*36 io_in[15]
*37 io_in[16]
*38 io_in[17]
*39 io_in[18]
*40 io_in[19]
*41 io_in[1]
*42 io_in[20]
*43 io_in[21]
*44 io_in[22]
*45 io_in[23]
*46 io_in[24]
*47 io_in[25]
*48 io_in[26]
*49 io_in[27]
*50 io_in[28]
*51 io_in[29]
*52 io_in[2]
*53 io_in[30]
*54 io_in[31]
*55 io_in[32]
*56 io_in[33]
*57 io_in[34]
*58 io_in[35]
*59 io_in[36]
*60 io_in[37]
*61 io_in[3]
*62 io_in[4]
*63 io_in[5]
*64 io_in[6]
*65 io_in[7]
*66 io_in[8]
*67 io_in[9]
*68 io_oeb[0]
*69 one_
*70 zero_
*71 io_oeb[1]
*72 io_oeb[20]
*73 io_oeb[21]
*74 io_oeb[22]
*75 io_oeb[23]
*76 io_oeb[24]
*77 io_oeb[25]
*78 io_oeb[26]
*79 io_oeb[27]
*80 io_oeb[28]
*81 io_oeb[29]
*82 io_oeb[2]
*83 io_oeb[30]
*84 io_oeb[31]
*85 io_oeb[32]
*86 io_oeb[33]
*87 io_oeb[34]
*88 io_oeb[35]
*89 io_oeb[36]
*90 io_oeb[37]
*91 io_oeb[3]
*92 io_oeb[4]
*93 io_out[0]
*94 io_out[10]
*95 io_out[11]
*96 io_out[12]
*97 io_out[13]
*98 io_out[14]
*99 io_out[15]
*100 io_out[16]
*101 io_out[17]
*102 io_out[18]
*103 io_out[19]
*104 io_out[1]
*105 io_out[20]
*106 io_out[21]
*107 io_out[22]
*108 io_out[23]
*109 io_out[24]
*110 io_out[25]
*111 io_out[26]
*112 io_out[27]
*113 io_out[28]
*114 io_out[29]
*115 io_out[2]
*116 io_out[30]
*117 io_out[31]
*118 io_out[32]
*119 io_out[33]
*120 io_out[34]
*121 io_out[35]
*122 io_out[36]
*123 io_out[37]
*124 io_out[3]
*125 io_out[4]
*126 io_out[5]
*127 io_out[6]
*128 io_out[7]
*129 io_out[8]
*130 io_out[9]
*131 la_data_in[0]
*132 la_data_in[100]
*133 la_data_in[101]
*134 la_data_in[102]
*135 la_data_in[103]
*136 la_data_in[104]
*137 la_data_in[105]
*138 la_data_in[106]
*139 la_data_in[107]
*140 la_data_in[108]
*141 la_data_in[109]
*142 la_data_in[10]
*143 la_data_in[110]
*144 la_data_in[111]
*145 la_data_in[112]
*146 la_data_in[113]
*147 la_data_in[114]
*148 la_data_in[115]
*149 la_data_in[116]
*150 la_data_in[117]
*151 la_data_in[118]
*152 la_data_in[119]
*153 la_data_in[11]
*154 la_data_in[120]
*155 la_data_in[121]
*156 la_data_in[122]
*157 la_data_in[123]
*158 la_data_in[124]
*159 la_data_in[125]
*160 la_data_in[126]
*161 la_data_in[127]
*162 la_data_in[12]
*163 la_data_in[13]
*164 la_data_in[14]
*165 la_data_in[15]
*166 la_data_in[16]
*167 la_data_in[17]
*168 la_data_in[18]
*169 la_data_in[19]
*170 la_data_in[1]
*171 la_data_in[20]
*172 la_data_in[21]
*173 la_data_in[22]
*174 la_data_in[23]
*175 la_data_in[24]
*176 la_data_in[25]
*177 la_data_in[26]
*178 la_data_in[27]
*179 la_data_in[28]
*180 la_data_in[29]
*181 la_data_in[2]
*182 la_data_in[30]
*183 la_data_in[31]
*184 la_data_in[32]
*185 la_data_in[33]
*186 la_data_in[34]
*187 la_data_in[35]
*188 la_data_in[36]
*189 la_data_in[37]
*190 la_data_in[38]
*191 la_data_in[39]
*192 la_data_in[3]
*193 la_data_in[40]
*194 la_data_in[41]
*195 la_data_in[42]
*196 la_data_in[43]
*197 la_data_in[44]
*198 la_data_in[45]
*199 la_data_in[46]
*200 la_data_in[47]
*201 la_data_in[48]
*202 la_data_in[49]
*203 la_data_in[4]
*204 la_data_in[50]
*205 la_data_in[51]
*206 la_data_in[52]
*207 la_data_in[53]
*208 la_data_in[54]
*209 la_data_in[55]
*210 la_data_in[56]
*211 la_data_in[57]
*212 la_data_in[58]
*213 la_data_in[59]
*214 la_data_in[5]
*215 la_data_in[60]
*216 la_data_in[61]
*217 la_data_in[62]
*218 la_data_in[63]
*219 la_data_in[64]
*220 la_data_in[65]
*221 la_data_in[66]
*222 la_data_in[67]
*223 la_data_in[68]
*224 la_data_in[69]
*225 la_data_in[6]
*226 la_data_in[70]
*227 la_data_in[71]
*228 la_data_in[72]
*229 la_data_in[73]
*230 la_data_in[74]
*231 la_data_in[75]
*232 la_data_in[76]
*233 la_data_in[77]
*234 la_data_in[78]
*235 la_data_in[79]
*236 la_data_in[7]
*237 la_data_in[80]
*238 la_data_in[81]
*239 la_data_in[82]
*240 la_data_in[83]
*241 la_data_in[84]
*242 la_data_in[85]
*243 la_data_in[86]
*244 la_data_in[87]
*245 la_data_in[88]
*246 la_data_in[89]
*247 la_data_in[8]
*248 la_data_in[90]
*249 la_data_in[91]
*250 la_data_in[92]
*251 la_data_in[93]
*252 la_data_in[94]
*253 la_data_in[95]
*254 la_data_in[96]
*255 la_data_in[97]
*256 la_data_in[98]
*257 la_data_in[99]
*258 la_data_in[9]
*259 la_data_out[0]
*260 la_data_out[100]
*261 la_data_out[101]
*262 la_data_out[102]
*263 la_data_out[103]
*264 la_data_out[104]
*265 la_data_out[105]
*266 la_data_out[106]
*267 la_data_out[107]
*268 la_data_out[108]
*269 la_data_out[109]
*270 la_data_out[10]
*271 la_data_out[110]
*272 la_data_out[111]
*273 la_data_out[112]
*274 la_data_out[113]
*275 la_data_out[114]
*276 la_data_out[115]
*277 la_data_out[116]
*278 la_data_out[117]
*279 la_data_out[118]
*280 la_data_out[119]
*281 la_data_out[11]
*282 la_data_out[120]
*283 la_data_out[121]
*284 la_data_out[122]
*285 la_data_out[123]
*286 la_data_out[124]
*287 la_data_out[125]
*288 la_data_out[126]
*289 la_data_out[127]
*290 la_data_out[12]
*291 la_data_out[13]
*292 la_data_out[14]
*293 la_data_out[15]
*294 la_data_out[16]
*295 la_data_out[17]
*296 la_data_out[18]
*297 la_data_out[19]
*298 la_data_out[1]
*299 la_data_out[20]
*300 la_data_out[21]
*301 la_data_out[22]
*302 la_data_out[23]
*303 la_data_out[24]
*304 la_data_out[25]
*305 la_data_out[26]
*306 la_data_out[27]
*307 la_data_out[28]
*308 la_data_out[29]
*309 la_data_out[2]
*310 la_data_out[30]
*311 la_data_out[31]
*312 la_data_out[32]
*313 la_data_out[33]
*314 la_data_out[34]
*315 la_data_out[35]
*316 la_data_out[36]
*317 la_data_out[37]
*318 la_data_out[38]
*319 la_data_out[39]
*320 la_data_out[3]
*321 la_data_out[40]
*322 la_data_out[41]
*323 la_data_out[42]
*324 la_data_out[43]
*325 la_data_out[44]
*326 la_data_out[45]
*327 la_data_out[46]
*328 la_data_out[47]
*329 la_data_out[48]
*330 la_data_out[49]
*331 la_data_out[4]
*332 la_data_out[50]
*333 la_data_out[51]
*334 la_data_out[52]
*335 la_data_out[53]
*336 la_data_out[54]
*337 la_data_out[55]
*338 la_data_out[56]
*339 la_data_out[57]
*340 la_data_out[58]
*341 la_data_out[59]
*342 la_data_out[5]
*343 la_data_out[60]
*344 la_data_out[61]
*345 la_data_out[62]
*346 la_data_out[63]
*347 la_data_out[64]
*348 la_data_out[65]
*349 la_data_out[66]
*350 la_data_out[67]
*351 la_data_out[68]
*352 la_data_out[69]
*353 la_data_out[6]
*354 la_data_out[70]
*355 la_data_out[71]
*356 la_data_out[72]
*357 la_data_out[73]
*358 la_data_out[74]
*359 la_data_out[75]
*360 la_data_out[76]
*361 la_data_out[77]
*362 la_data_out[78]
*363 la_data_out[79]
*364 la_data_out[7]
*365 la_data_out[80]
*366 la_data_out[81]
*367 la_data_out[82]
*368 la_data_out[83]
*369 la_data_out[84]
*370 la_data_out[85]
*371 la_data_out[86]
*372 la_data_out[87]
*373 la_data_out[88]
*374 la_data_out[89]
*375 la_data_out[8]
*376 la_data_out[90]
*377 la_data_out[91]
*378 la_data_out[92]
*379 la_data_out[93]
*380 la_data_out[94]
*381 la_data_out[95]
*382 la_data_out[96]
*383 la_data_out[97]
*384 la_data_out[98]
*385 la_data_out[99]
*386 la_data_out[9]
*387 la_oenb[0]
*388 la_oenb[100]
*389 la_oenb[101]
*390 la_oenb[102]
*391 la_oenb[103]
*392 la_oenb[104]
*393 la_oenb[105]
*394 la_oenb[106]
*395 la_oenb[107]
*396 la_oenb[108]
*397 la_oenb[109]
*398 la_oenb[10]
*399 la_oenb[110]
*400 la_oenb[111]
*401 la_oenb[112]
*402 la_oenb[113]
*403 la_oenb[114]
*404 la_oenb[115]
*405 la_oenb[116]
*406 la_oenb[117]
*407 la_oenb[118]
*408 la_oenb[119]
*409 la_oenb[11]
*410 la_oenb[120]
*411 la_oenb[121]
*412 la_oenb[122]
*413 la_oenb[123]
*414 la_oenb[124]
*415 la_oenb[125]
*416 la_oenb[126]
*417 la_oenb[127]
*418 la_oenb[12]
*419 la_oenb[13]
*420 la_oenb[14]
*421 la_oenb[15]
*422 la_oenb[16]
*423 la_oenb[17]
*424 la_oenb[18]
*425 la_oenb[19]
*426 la_oenb[1]
*427 la_oenb[20]
*428 la_oenb[21]
*429 la_oenb[22]
*430 la_oenb[23]
*431 la_oenb[24]
*432 la_oenb[25]
*433 la_oenb[26]
*434 la_oenb[27]
*435 la_oenb[28]
*436 la_oenb[29]
*437 la_oenb[2]
*438 la_oenb[30]
*439 la_oenb[31]
*440 la_oenb[32]
*441 la_oenb[33]
*442 la_oenb[34]
*443 la_oenb[35]
*444 la_oenb[36]
*445 la_oenb[37]
*446 la_oenb[38]
*447 la_oenb[39]
*448 la_oenb[3]
*449 la_oenb[40]
*450 la_oenb[41]
*451 la_oenb[42]
*452 la_oenb[43]
*453 la_oenb[44]
*454 la_oenb[45]
*455 la_oenb[46]
*456 la_oenb[47]
*457 la_oenb[48]
*458 la_oenb[49]
*459 la_oenb[4]
*460 la_oenb[50]
*461 la_oenb[51]
*462 la_oenb[52]
*463 la_oenb[53]
*464 la_oenb[54]
*465 la_oenb[55]
*466 la_oenb[56]
*467 la_oenb[57]
*468 la_oenb[58]
*469 la_oenb[59]
*470 la_oenb[5]
*471 la_oenb[60]
*472 la_oenb[61]
*473 la_oenb[62]
*474 la_oenb[63]
*475 la_oenb[64]
*476 la_oenb[65]
*477 la_oenb[66]
*478 la_oenb[67]
*479 la_oenb[68]
*480 la_oenb[69]
*481 la_oenb[6]
*482 la_oenb[70]
*483 la_oenb[71]
*484 la_oenb[72]
*485 la_oenb[73]
*486 la_oenb[74]
*487 la_oenb[75]
*488 la_oenb[76]
*489 la_oenb[77]
*490 la_oenb[78]
*491 la_oenb[79]
*492 la_oenb[7]
*493 la_oenb[80]
*494 la_oenb[81]
*495 la_oenb[82]
*496 la_oenb[83]
*497 la_oenb[84]
*498 la_oenb[85]
*499 la_oenb[86]
*500 la_oenb[87]
*501 la_oenb[88]
*502 la_oenb[89]
*503 la_oenb[8]
*504 la_oenb[90]
*505 la_oenb[91]
*506 la_oenb[92]
*507 la_oenb[93]
*508 la_oenb[94]
*509 la_oenb[95]
*510 la_oenb[96]
*511 la_oenb[97]
*512 la_oenb[98]
*513 la_oenb[99]
*514 la_oenb[9]
*515 user_clock2
*516 user_irq[0]
*517 user_irq[1]
*518 user_irq[2]
*527 wb_clk_i
*528 wb_rst_i
*529 wbs_ack_o
*530 wbs_adr_i[0]
*531 wbs_adr_i[10]
*532 wbs_adr_i[11]
*533 wbs_adr_i[12]
*534 wbs_adr_i[13]
*535 wbs_adr_i[14]
*536 wbs_adr_i[15]
*537 wbs_adr_i[16]
*538 wbs_adr_i[17]
*539 wbs_adr_i[18]
*540 wbs_adr_i[19]
*541 wbs_adr_i[1]
*542 wbs_adr_i[20]
*543 wbs_adr_i[21]
*544 wbs_adr_i[22]
*545 wbs_adr_i[23]
*546 wbs_adr_i[24]
*547 wbs_adr_i[25]
*548 wbs_adr_i[26]
*549 wbs_adr_i[27]
*550 wbs_adr_i[28]
*551 wbs_adr_i[29]
*552 wbs_adr_i[2]
*553 wbs_adr_i[30]
*554 wbs_adr_i[31]
*555 wbs_adr_i[3]
*556 wbs_adr_i[4]
*557 wbs_adr_i[5]
*558 wbs_adr_i[6]
*559 wbs_adr_i[7]
*560 wbs_adr_i[8]
*561 wbs_adr_i[9]
*562 wbs_cyc_i
*563 wbs_dat_i[0]
*564 wbs_dat_i[10]
*565 wbs_dat_i[11]
*566 wbs_dat_i[12]
*567 wbs_dat_i[13]
*568 wbs_dat_i[14]
*569 wbs_dat_i[15]
*570 wbs_dat_i[16]
*571 wbs_dat_i[17]
*572 wbs_dat_i[18]
*573 wbs_dat_i[19]
*574 wbs_dat_i[1]
*575 wbs_dat_i[20]
*576 wbs_dat_i[21]
*577 wbs_dat_i[22]
*578 wbs_dat_i[23]
*579 wbs_dat_i[24]
*580 wbs_dat_i[25]
*581 wbs_dat_i[26]
*582 wbs_dat_i[27]
*583 wbs_dat_i[28]
*584 wbs_dat_i[29]
*585 wbs_dat_i[2]
*586 wbs_dat_i[30]
*587 wbs_dat_i[31]
*588 wbs_dat_i[3]
*589 wbs_dat_i[4]
*590 wbs_dat_i[5]
*591 wbs_dat_i[6]
*592 wbs_dat_i[7]
*593 wbs_dat_i[8]
*594 wbs_dat_i[9]
*595 wbs_dat_o[0]
*596 wbs_dat_o[10]
*597 wbs_dat_o[11]
*598 wbs_dat_o[12]
*599 wbs_dat_o[13]
*600 wbs_dat_o[14]
*601 wbs_dat_o[15]
*602 wbs_dat_o[16]
*603 wbs_dat_o[17]
*604 wbs_dat_o[18]
*605 wbs_dat_o[19]
*606 wbs_dat_o[1]
*607 wbs_dat_o[20]
*608 wbs_dat_o[21]
*609 wbs_dat_o[22]
*610 wbs_dat_o[23]
*611 wbs_dat_o[24]
*612 wbs_dat_o[25]
*613 wbs_dat_o[26]
*614 wbs_dat_o[27]
*615 wbs_dat_o[28]
*616 wbs_dat_o[29]
*617 wbs_dat_o[2]
*618 wbs_dat_o[30]
*619 wbs_dat_o[31]
*620 wbs_dat_o[3]
*621 wbs_dat_o[4]
*622 wbs_dat_o[5]
*623 wbs_dat_o[6]
*624 wbs_dat_o[7]
*625 wbs_dat_o[8]
*626 wbs_dat_o[9]
*627 wbs_sel_i[0]
*628 wbs_sel_i[1]
*629 wbs_sel_i[2]
*630 wbs_sel_i[3]
*631 wbs_stb_i
*632 wbs_we_i
*633 x1_0
*634 x1_0_
*635 x1_1
*636 x1_1_
*637 x1_2
*638 x1_2_
*639 x1_3
*640 x1_3_
*641 x1_4
*642 x1_4_
*643 x1_5
*644 x1_5_
*645 x1_6
*646 x1_6_
*647 x1_7
*648 x1_7_
*649 x1_8
*650 x1_8_
*651 x1_9
*652 x1_9_
*653 x2_0
*654 x2_0_
*655 x2_1
*656 x2_1_
*657 x2_2
*658 x2_2_
*659 x2_3
*660 x2_3_
*661 x2_4
*662 x2_4_
*663 x2_5
*664 x2_5_
*665 x2_6
*666 x2_6_
*667 x2_7
*668 x2_7_
*669 x2_8
*670 x2_8_
*671 x2_9
*672 x2_9_
*673 x3_0
*674 x3_0_
*675 x3_1
*676 x3_1_
*677 x3_2
*678 x3_2_
*679 x3_3
*680 x3_3_
*681 x3_4
*682 x3_4_
*683 x3_5
*684 x3_5_
*685 x3_6
*686 x3_6_
*687 x3_7
*688 x3_7_
*689 x3_8
*690 x3_8_
*691 x3_9
*692 x3_9_
*693 x4_0
*694 x4_0_
*695 x4_1
*696 x4_1_
*697 x4_2
*698 x4_2_
*699 x4_3
*700 x4_3_
*701 x4_4
*702 x4_4_
*703 x4_5
*704 x4_5_
*705 x4_6
*706 x4_6_
*707 x4_7
*708 x4_7_
*709 x4_8
*710 x4_8_
*711 x4_9
*712 x4_9_
*713 x5_0
*714 x5_0_
*715 x5_1
*716 x5_1_
*717 x5_2
*718 x5_2_
*719 x5_3
*720 x5_3_
*721 x5_4
*722 x5_4_
*723 x5_5
*724 x5_5_
*725 x5_6
*726 x5_6_
*727 x5_7
*728 x5_7_
*729 x5_8
*730 x5_8_
*731 x5_9
*732 x5_9_
*733 TIE_ONE_one_
*734 TIE_ZERO_zero_
*735 mprj1
*736 mprj2
*737 mprj3
*738 mprj4
*739 mprj5
*740 ro1
*741 ro10
*742 ro2
*743 ro3
*744 ro4
*745 ro5
*746 ro6
*747 ro7
*748 ro8
*749 ro9

*PORTS
analog_io[0] I
analog_io[10] I
analog_io[11] I
analog_io[12] I
analog_io[13] I
analog_io[14] I
analog_io[15] I
analog_io[16] I
analog_io[17] I
analog_io[18] I
analog_io[19] I
analog_io[1] I
analog_io[20] I
analog_io[21] I
analog_io[22] I
analog_io[23] I
analog_io[24] I
analog_io[25] I
analog_io[26] I
analog_io[27] I
analog_io[28] I
analog_io[2] I
analog_io[3] I
analog_io[4] I
analog_io[5] I
analog_io[6] I
analog_io[7] I
analog_io[8] I
analog_io[9] I
io_in[0] I
io_in[10] I
io_in[11] I
io_in[12] I
io_in[13] I
io_in[14] I
io_in[15] I
io_in[16] I
io_in[17] I
io_in[18] I
io_in[19] I
io_in[1] I
io_in[20] I
io_in[21] I
io_in[22] I
io_in[23] I
io_in[24] I
io_in[25] I
io_in[26] I
io_in[27] I
io_in[28] I
io_in[29] I
io_in[2] I
io_in[30] I
io_in[31] I
io_in[32] I
io_in[33] I
io_in[34] I
io_in[35] I
io_in[36] I
io_in[37] I
io_in[3] I
io_in[4] I
io_in[5] I
io_in[6] I
io_in[7] I
io_in[8] I
io_in[9] I
io_oeb[0] O
io_oeb[10] O
io_oeb[11] O
io_oeb[12] O
io_oeb[13] O
io_oeb[14] O
io_oeb[15] O
io_oeb[16] O
io_oeb[17] O
io_oeb[18] O
io_oeb[19] O
io_oeb[1] O
io_oeb[20] O
io_oeb[21] O
io_oeb[22] O
io_oeb[23] O
io_oeb[24] O
io_oeb[25] O
io_oeb[26] O
io_oeb[27] O
io_oeb[28] O
io_oeb[29] O
io_oeb[2] O
io_oeb[30] O
io_oeb[31] O
io_oeb[32] O
io_oeb[33] O
io_oeb[34] O
io_oeb[35] O
io_oeb[36] O
io_oeb[37] O
io_oeb[3] O
io_oeb[4] O
io_oeb[5] O
io_oeb[6] O
io_oeb[7] O
io_oeb[8] O
io_oeb[9] O
io_out[0] O
io_out[10] O
io_out[11] O
io_out[12] O
io_out[13] O
io_out[14] O
io_out[15] O
io_out[16] O
io_out[17] O
io_out[18] O
io_out[19] O
io_out[1] O
io_out[20] O
io_out[21] O
io_out[22] O
io_out[23] O
io_out[24] O
io_out[25] O
io_out[26] O
io_out[27] O
io_out[28] O
io_out[29] O
io_out[2] O
io_out[30] O
io_out[31] O
io_out[32] O
io_out[33] O
io_out[34] O
io_out[35] O
io_out[36] O
io_out[37] O
io_out[3] O
io_out[4] O
io_out[5] O
io_out[6] O
io_out[7] O
io_out[8] O
io_out[9] O
la_data_in[0] I
la_data_in[100] I
la_data_in[101] I
la_data_in[102] I
la_data_in[103] I
la_data_in[104] I
la_data_in[105] I
la_data_in[106] I
la_data_in[107] I
la_data_in[108] I
la_data_in[109] I
la_data_in[10] I
la_data_in[110] I
la_data_in[111] I
la_data_in[112] I
la_data_in[113] I
la_data_in[114] I
la_data_in[115] I
la_data_in[116] I
la_data_in[117] I
la_data_in[118] I
la_data_in[119] I
la_data_in[11] I
la_data_in[120] I
la_data_in[121] I
la_data_in[122] I
la_data_in[123] I
la_data_in[124] I
la_data_in[125] I
la_data_in[126] I
la_data_in[127] I
la_data_in[12] I
la_data_in[13] I
la_data_in[14] I
la_data_in[15] I
la_data_in[16] I
la_data_in[17] I
la_data_in[18] I
la_data_in[19] I
la_data_in[1] I
la_data_in[20] I
la_data_in[21] I
la_data_in[22] I
la_data_in[23] I
la_data_in[24] I
la_data_in[25] I
la_data_in[26] I
la_data_in[27] I
la_data_in[28] I
la_data_in[29] I
la_data_in[2] I
la_data_in[30] I
la_data_in[31] I
la_data_in[32] I
la_data_in[33] I
la_data_in[34] I
la_data_in[35] I
la_data_in[36] I
la_data_in[37] I
la_data_in[38] I
la_data_in[39] I
la_data_in[3] I
la_data_in[40] I
la_data_in[41] I
la_data_in[42] I
la_data_in[43] I
la_data_in[44] I
la_data_in[45] I
la_data_in[46] I
la_data_in[47] I
la_data_in[48] I
la_data_in[49] I
la_data_in[4] I
la_data_in[50] I
la_data_in[51] I
la_data_in[52] I
la_data_in[53] I
la_data_in[54] I
la_data_in[55] I
la_data_in[56] I
la_data_in[57] I
la_data_in[58] I
la_data_in[59] I
la_data_in[5] I
la_data_in[60] I
la_data_in[61] I
la_data_in[62] I
la_data_in[63] I
la_data_in[64] I
la_data_in[65] I
la_data_in[66] I
la_data_in[67] I
la_data_in[68] I
la_data_in[69] I
la_data_in[6] I
la_data_in[70] I
la_data_in[71] I
la_data_in[72] I
la_data_in[73] I
la_data_in[74] I
la_data_in[75] I
la_data_in[76] I
la_data_in[77] I
la_data_in[78] I
la_data_in[79] I
la_data_in[7] I
la_data_in[80] I
la_data_in[81] I
la_data_in[82] I
la_data_in[83] I
la_data_in[84] I
la_data_in[85] I
la_data_in[86] I
la_data_in[87] I
la_data_in[88] I
la_data_in[89] I
la_data_in[8] I
la_data_in[90] I
la_data_in[91] I
la_data_in[92] I
la_data_in[93] I
la_data_in[94] I
la_data_in[95] I
la_data_in[96] I
la_data_in[97] I
la_data_in[98] I
la_data_in[99] I
la_data_in[9] I
la_data_out[0] O
la_data_out[100] O
la_data_out[101] O
la_data_out[102] O
la_data_out[103] O
la_data_out[104] O
la_data_out[105] O
la_data_out[106] O
la_data_out[107] O
la_data_out[108] O
la_data_out[109] O
la_data_out[10] O
la_data_out[110] O
la_data_out[111] O
la_data_out[112] O
la_data_out[113] O
la_data_out[114] O
la_data_out[115] O
la_data_out[116] O
la_data_out[117] O
la_data_out[118] O
la_data_out[119] O
la_data_out[11] O
la_data_out[120] O
la_data_out[121] O
la_data_out[122] O
la_data_out[123] O
la_data_out[124] O
la_data_out[125] O
la_data_out[126] O
la_data_out[127] O
la_data_out[12] O
la_data_out[13] O
la_data_out[14] O
la_data_out[15] O
la_data_out[16] O
la_data_out[17] O
la_data_out[18] O
la_data_out[19] O
la_data_out[1] O
la_data_out[20] O
la_data_out[21] O
la_data_out[22] O
la_data_out[23] O
la_data_out[24] O
la_data_out[25] O
la_data_out[26] O
la_data_out[27] O
la_data_out[28] O
la_data_out[29] O
la_data_out[2] O
la_data_out[30] O
la_data_out[31] O
la_data_out[32] O
la_data_out[33] O
la_data_out[34] O
la_data_out[35] O
la_data_out[36] O
la_data_out[37] O
la_data_out[38] O
la_data_out[39] O
la_data_out[3] O
la_data_out[40] O
la_data_out[41] O
la_data_out[42] O
la_data_out[43] O
la_data_out[44] O
la_data_out[45] O
la_data_out[46] O
la_data_out[47] O
la_data_out[48] O
la_data_out[49] O
la_data_out[4] O
la_data_out[50] O
la_data_out[51] O
la_data_out[52] O
la_data_out[53] O
la_data_out[54] O
la_data_out[55] O
la_data_out[56] O
la_data_out[57] O
la_data_out[58] O
la_data_out[59] O
la_data_out[5] O
la_data_out[60] O
la_data_out[61] O
la_data_out[62] O
la_data_out[63] O
la_data_out[64] O
la_data_out[65] O
la_data_out[66] O
la_data_out[67] O
la_data_out[68] O
la_data_out[69] O
la_data_out[6] O
la_data_out[70] O
la_data_out[71] O
la_data_out[72] O
la_data_out[73] O
la_data_out[74] O
la_data_out[75] O
la_data_out[76] O
la_data_out[77] O
la_data_out[78] O
la_data_out[79] O
la_data_out[7] O
la_data_out[80] O
la_data_out[81] O
la_data_out[82] O
la_data_out[83] O
la_data_out[84] O
la_data_out[85] O
la_data_out[86] O
la_data_out[87] O
la_data_out[88] O
la_data_out[89] O
la_data_out[8] O
la_data_out[90] O
la_data_out[91] O
la_data_out[92] O
la_data_out[93] O
la_data_out[94] O
la_data_out[95] O
la_data_out[96] O
la_data_out[97] O
la_data_out[98] O
la_data_out[99] O
la_data_out[9] O
la_oenb[0] I
la_oenb[100] I
la_oenb[101] I
la_oenb[102] I
la_oenb[103] I
la_oenb[104] I
la_oenb[105] I
la_oenb[106] I
la_oenb[107] I
la_oenb[108] I
la_oenb[109] I
la_oenb[10] I
la_oenb[110] I
la_oenb[111] I
la_oenb[112] I
la_oenb[113] I
la_oenb[114] I
la_oenb[115] I
la_oenb[116] I
la_oenb[117] I
la_oenb[118] I
la_oenb[119] I
la_oenb[11] I
la_oenb[120] I
la_oenb[121] I
la_oenb[122] I
la_oenb[123] I
la_oenb[124] I
la_oenb[125] I
la_oenb[126] I
la_oenb[127] I
la_oenb[12] I
la_oenb[13] I
la_oenb[14] I
la_oenb[15] I
la_oenb[16] I
la_oenb[17] I
la_oenb[18] I
la_oenb[19] I
la_oenb[1] I
la_oenb[20] I
la_oenb[21] I
la_oenb[22] I
la_oenb[23] I
la_oenb[24] I
la_oenb[25] I
la_oenb[26] I
la_oenb[27] I
la_oenb[28] I
la_oenb[29] I
la_oenb[2] I
la_oenb[30] I
la_oenb[31] I
la_oenb[32] I
la_oenb[33] I
la_oenb[34] I
la_oenb[35] I
la_oenb[36] I
la_oenb[37] I
la_oenb[38] I
la_oenb[39] I
la_oenb[3] I
la_oenb[40] I
la_oenb[41] I
la_oenb[42] I
la_oenb[43] I
la_oenb[44] I
la_oenb[45] I
la_oenb[46] I
la_oenb[47] I
la_oenb[48] I
la_oenb[49] I
la_oenb[4] I
la_oenb[50] I
la_oenb[51] I
la_oenb[52] I
la_oenb[53] I
la_oenb[54] I
la_oenb[55] I
la_oenb[56] I
la_oenb[57] I
la_oenb[58] I
la_oenb[59] I
la_oenb[5] I
la_oenb[60] I
la_oenb[61] I
la_oenb[62] I
la_oenb[63] I
la_oenb[64] I
la_oenb[65] I
la_oenb[66] I
la_oenb[67] I
la_oenb[68] I
la_oenb[69] I
la_oenb[6] I
la_oenb[70] I
la_oenb[71] I
la_oenb[72] I
la_oenb[73] I
la_oenb[74] I
la_oenb[75] I
la_oenb[76] I
la_oenb[77] I
la_oenb[78] I
la_oenb[79] I
la_oenb[7] I
la_oenb[80] I
la_oenb[81] I
la_oenb[82] I
la_oenb[83] I
la_oenb[84] I
la_oenb[85] I
la_oenb[86] I
la_oenb[87] I
la_oenb[88] I
la_oenb[89] I
la_oenb[8] I
la_oenb[90] I
la_oenb[91] I
la_oenb[92] I
la_oenb[93] I
la_oenb[94] I
la_oenb[95] I
la_oenb[96] I
la_oenb[97] I
la_oenb[98] I
la_oenb[99] I
la_oenb[9] I
user_clock2 I
user_irq[0] O
user_irq[1] O
user_irq[2] O
wb_clk_i I
wb_rst_i I
wbs_ack_o O
wbs_adr_i[0] I
wbs_adr_i[10] I
wbs_adr_i[11] I
wbs_adr_i[12] I
wbs_adr_i[13] I
wbs_adr_i[14] I
wbs_adr_i[15] I
wbs_adr_i[16] I
wbs_adr_i[17] I
wbs_adr_i[18] I
wbs_adr_i[19] I
wbs_adr_i[1] I
wbs_adr_i[20] I
wbs_adr_i[21] I
wbs_adr_i[22] I
wbs_adr_i[23] I
wbs_adr_i[24] I
wbs_adr_i[25] I
wbs_adr_i[26] I
wbs_adr_i[27] I
wbs_adr_i[28] I
wbs_adr_i[29] I
wbs_adr_i[2] I
wbs_adr_i[30] I
wbs_adr_i[31] I
wbs_adr_i[3] I
wbs_adr_i[4] I
wbs_adr_i[5] I
wbs_adr_i[6] I
wbs_adr_i[7] I
wbs_adr_i[8] I
wbs_adr_i[9] I
wbs_cyc_i I
wbs_dat_i[0] I
wbs_dat_i[10] I
wbs_dat_i[11] I
wbs_dat_i[12] I
wbs_dat_i[13] I
wbs_dat_i[14] I
wbs_dat_i[15] I
wbs_dat_i[16] I
wbs_dat_i[17] I
wbs_dat_i[18] I
wbs_dat_i[19] I
wbs_dat_i[1] I
wbs_dat_i[20] I
wbs_dat_i[21] I
wbs_dat_i[22] I
wbs_dat_i[23] I
wbs_dat_i[24] I
wbs_dat_i[25] I
wbs_dat_i[26] I
wbs_dat_i[27] I
wbs_dat_i[28] I
wbs_dat_i[29] I
wbs_dat_i[2] I
wbs_dat_i[30] I
wbs_dat_i[31] I
wbs_dat_i[3] I
wbs_dat_i[4] I
wbs_dat_i[5] I
wbs_dat_i[6] I
wbs_dat_i[7] I
wbs_dat_i[8] I
wbs_dat_i[9] I
wbs_dat_o[0] O
wbs_dat_o[10] O
wbs_dat_o[11] O
wbs_dat_o[12] O
wbs_dat_o[13] O
wbs_dat_o[14] O
wbs_dat_o[15] O
wbs_dat_o[16] O
wbs_dat_o[17] O
wbs_dat_o[18] O
wbs_dat_o[19] O
wbs_dat_o[1] O
wbs_dat_o[20] O
wbs_dat_o[21] O
wbs_dat_o[22] O
wbs_dat_o[23] O
wbs_dat_o[24] O
wbs_dat_o[25] O
wbs_dat_o[26] O
wbs_dat_o[27] O
wbs_dat_o[28] O
wbs_dat_o[29] O
wbs_dat_o[2] O
wbs_dat_o[30] O
wbs_dat_o[31] O
wbs_dat_o[3] O
wbs_dat_o[4] O
wbs_dat_o[5] O
wbs_dat_o[6] O
wbs_dat_o[7] O
wbs_dat_o[8] O
wbs_dat_o[9] O
wbs_sel_i[0] I
wbs_sel_i[1] I
wbs_sel_i[2] I
wbs_sel_i[3] I
wbs_stb_i I
wbs_we_i I

*D_NET *31 0.1343
*CONN
*P io_in[10] I
*I *740:start I *D sky130_osu_ring_oscillator_mpr2ca_8_b0r1
*I *742:start I *D sky130_osu_ring_oscillator_mpr2ct_8_b0r1
*I *743:start I *D sky130_osu_ring_oscillator_mpr2ea_8_b0r1
*I *745:start I *D sky130_osu_ring_oscillator_mpr2xa_8_b0r1
*I *746:start I *D sky130_osu_ring_oscillator_mpr2ca_8_b0r2
*I *747:start I *D sky130_osu_ring_oscillator_mpr2ct_8_b0r2
*I *748:start I *D sky130_osu_ring_oscillator_mpr2ea_8_b0r2
*I *741:start I *D sky130_osu_ring_oscillator_mpr2xa_8_b0r2
*I *749:start I *D sky130_osu_ring_oscillator_mpr2et_8_b0r2
*I *744:start I *D sky130_osu_ring_oscillator_mpr2et_8_b0r1
*CAP
1 io_in[10] 0.00160243
2 *740:start 7.66823e-05
3 *742:start 0
4 *743:start 0.0001012
5 *745:start 0.000451856
6 *746:start 1.85767e-05
7 *747:start 0.000106445
8 *748:start 0.000103167
9 *741:start 0.000950192
10 *749:start 0.00015191
11 *744:start 0.000167676
12 *31:91 0.00469222
13 *31:89 0.00380551
14 *31:72 0.00413248
15 *31:70 0.00731972
16 *31:68 0.00742132
17 *31:66 0.0042534
18 *31:62 0.000843082
19 *31:56 0.00350441
20 *31:48 0.0102159
21 *31:46 0.0070522
22 *31:31 0.00439947
23 *31:29 0.00869885
24 *31:27 0.00444271
25 *31:23 0.00215763
26 *31:21 0.00393164
27 *31:17 0.00263038
28 *31:13 0.024229
29 *31:11 0.0252077
30 *31:11 *35:9 0.00163266
*RES
1 io_in[10] *31:11 22.7282 
2 *31:11 *31:13 406.86 
3 *31:13 *31:17 12.815 
4 *31:17 *31:21 33.8025 
5 *31:21 *31:23 35.115 
6 *31:23 *31:27 2.805 
7 *31:27 *31:29 77.7675 
8 *31:29 *31:31 78.645 
9 *31:31 *744:start 3.485 
10 *744:start *31:46 3.185 
11 *31:46 *31:48 121.995 
12 *31:48 *31:56 48.9675 
13 *31:56 *31:62 14.4575 
14 *31:62 *31:66 3.83 
15 *31:66 *31:68 75.585 
16 *31:68 *31:70 57.48 
17 *31:70 *31:72 73.8 
18 *31:72 *749:start 3.485 
19 *749:start *31:89 3.05375 
20 *31:89 *31:91 65.385 
21 *31:91 *741:start 22.6238 
22 *31:70 *748:start 3.695 
23 *31:68 *747:start 3.75125 
24 *31:62 *746:start 0.31875 
25 *31:48 *745:start 9.725 
26 *31:29 *743:start 3.66125 
27 *31:23 *742:start 2 
28 *31:17 *740:start 3.2375 
*END

*D_NET *32 0.135019
*CONN
*P io_in[11] I
*I *736:select[0] I *D mux16x1_project
*I *737:select[0] I *D mux16x1_project
*I *738:select[0] I *D mux16x1_project
*I *739:select[0] I *D mux16x1_project
*I *735:select[0] I *D mux16x1_project
*CAP
1 io_in[11] 0.000811076
2 *736:select[0] 7.89038e-05
3 *737:select[0] 9.79068e-05
4 *738:select[0] 7.89038e-05
5 *739:select[0] 7.89038e-05
6 *735:select[0] 0.005322
7 *32:57 0.00304282
8 *32:55 0.0029887
9 *32:53 0.00448846
10 *32:51 0.00448846
11 *32:49 0.00159997
12 *32:47 0.00356828
13 *32:41 0.00588776
14 *32:39 0.00606225
15 *32:37 0.00419486
16 *32:31 0.00529472
17 *32:29 0.00327322
18 *32:27 0.00282098
19 *32:25 0.00276108
20 *32:23 0.004866
21 *32:21 0.00493912
22 *32:9 0.00945239
23 *32:7 0.00505837
24 *735:select[0] *735:select[1] 0.00518232
25 *735:select[0] *735:select[2] 0.01551
26 *32:9 *33:9 0.0124296
27 *32:9 *69:58 0.0119815
28 *32:9 *69:68 0.00866006
*RES
1 io_in[11] *32:7 2.23787 
2 *32:7 *32:9 238.275 
3 *32:9 *735:select[0] 35.077 
4 *735:select[0] *32:21 2.1225 
5 *32:21 *32:23 88.08 
6 *32:23 *32:25 0.795 
7 *32:25 *32:27 49.32 
8 *32:27 *32:29 0.45 
9 *32:29 *32:31 59.565 
10 *32:31 *32:37 37.23 
11 *32:37 *32:39 39.06 
12 *32:39 *32:41 69.825 
13 *32:41 *32:47 37.575 
14 *32:47 *32:49 27.27 
15 *32:49 *32:51 0.45 
16 *32:51 *32:53 81.615 
17 *32:53 *32:55 0.45 
18 *32:55 *32:57 53.745 
19 *32:57 *739:select[0] 1.4325 
20 *32:49 *738:select[0] 1.4325 
21 *32:39 *737:select[0] 1.7775 
22 *32:27 *736:select[0] 1.4325 
*END

*D_NET *33 0.150698
*CONN
*P io_in[12] I
*I *736:select[1] I *D mux16x1_project
*I *737:select[1] I *D mux16x1_project
*I *738:select[1] I *D mux16x1_project
*I *739:select[1] I *D mux16x1_project
*I *735:select[1] I *D mux16x1_project
*CAP
1 io_in[12] 0.000840677
2 *736:select[1] 4.95169e-05
3 *737:select[1] 5.68759e-05
4 *738:select[1] 0.000436302
5 *739:select[1] 0.00895325
6 *735:select[1] 0.0161232
7 *33:35 0.0172541
8 *33:33 0.0163134
9 *33:31 0.0169627
10 *33:9 0.0161365
11 *33:7 0.00937514
12 *736:select[1] *67:13 1.58571e-05
13 *33:9 *34:9 0.0227752
14 *33:9 *69:58 7.5553e-05
15 *33:9 *69:68 0.0039017
16 *33:9 *69:78 0.00381603
17 *735:select[0] *735:select[1] 0.00518232
18 *32:9 *33:9 0.0124296
*RES
1 io_in[12] *33:7 2.3544 
2 *33:7 *33:9 439.215 
3 *33:9 *735:select[1] 31.3473 
4 *735:select[1] *33:31 23.9887 
5 *33:31 *33:33 22.9495 
6 *33:33 *33:35 21.3129 
7 *33:35 *739:select[1] 31.519 
8 *33:35 *738:select[1] 7.8079 
9 *33:33 *737:select[1] 1.1254 
10 *33:31 *736:select[1] 1.1254 
*END

*D_NET *34 0.193216
*CONN
*P io_in[13] I
*I *736:select[2] I *D mux16x1_project
*I *737:select[2] I *D mux16x1_project
*I *738:select[2] I *D mux16x1_project
*I *739:select[2] I *D mux16x1_project
*I *735:select[2] I *D mux16x1_project
*CAP
1 io_in[13] 0.000909341
2 *736:select[2] 6.06383e-05
3 *737:select[2] 5.68977e-05
4 *738:select[2] 0.000436304
5 *739:select[2] 0.00895325
6 *735:select[2] 0.0115992
7 *34:31 0.0172541
8 *34:29 0.0163134
9 *34:27 0.0169901
10 *34:9 0.0184694
11 *34:7 0.016317
12 *735:select[2] *735:select[3] 0.0144114
13 *736:select[2] *67:13 6.83077e-06
14 *34:9 *35:9 0.0331527
15 *34:9 *69:78 0
16 *34:9 *69:88 0
17 *735:select[0] *735:select[2] 0.01551
18 *33:9 *34:9 0.0227752
*RES
1 io_in[13] *34:7 2.47093 
2 *34:7 *34:9 636.075 
3 *34:9 *735:select[2] 32.2076 
4 *735:select[2] *34:27 24.2471 
5 *34:27 *34:29 22.9495 
6 *34:29 *34:31 21.3129 
7 *34:31 *739:select[2] 31.519 
8 *34:31 *738:select[2] 7.8079 
9 *34:29 *737:select[2] 1.1254 
10 *34:27 *736:select[2] 1.46463 
*END

*D_NET *35 0.215461
*CONN
*P io_in[14] I
*I *736:select[3] I *D mux16x1_project
*I *737:select[3] I *D mux16x1_project
*I *739:select[3] I *D mux16x1_project
*I *738:select[3] I *D mux16x1_project
*I *735:select[3] I *D mux16x1_project
*CAP
1 io_in[14] 0.000921776
2 *736:select[3] 0.000360817
3 *737:select[3] 0.000233791
4 *739:select[3] 0.000537967
5 *738:select[3] 5.99008e-05
6 *735:select[3] 0.00586094
7 *35:63 0.00556054
8 *35:61 0.00518845
9 *35:47 0.00188385
10 *35:35 0.00560758
11 *35:33 0.00904346
12 *35:31 0.0103793
13 *35:29 0.00549502
14 *35:9 0.0394211
15 *35:7 0.0348186
16 *735:select[3] *103:11 0
17 *736:select[3] *103:11 0.000274655
18 *737:select[3] *103:11 1.49267e-05
19 *739:select[3] *103:11 0.00025681
20 *35:9 *69:88 0
21 *35:9 *69:98 0
22 *35:29 *103:11 0
23 *35:31 *101:11 0
24 *35:31 *102:11 0.0120157
25 *35:33 *102:11 0.0113326
26 *35:35 *102:11 0.00919587
27 *35:47 *103:11 4.46271e-06
28 *35:61 *103:11 0
29 *35:63 *102:11 0.0034865
30 *35:63 *103:11 0.00430951
31 *735:select[2] *735:select[3] 0.0144114
32 *31:11 *35:9 0.00163266
33 *34:9 *35:9 0.0331527
*RES
1 io_in[14] *35:7 2.58747 
2 *35:7 *35:9 834.975 
3 *35:9 *735:select[3] 31.0278 
4 *735:select[3] *35:29 9.535 
5 *35:29 *35:31 138.825 
6 *35:31 *35:33 130.92 
7 *35:33 *35:35 106.185 
8 *35:35 *35:47 33.6625 
9 *35:47 *738:select[3] 1.0875 
10 *35:47 *35:61 6.4075 
11 *35:61 *35:63 127.605 
12 *35:63 *739:select[3] 14.89 
13 *35:33 *737:select[3] 7.75 
14 *35:31 *736:select[3] 11.275 
*END
