*SPEF "ieee 1481-1999"
*DESIGN "user_project_wrapper"
*DATE "11:11:11 Fri 11 11, 1111"
*VENDOR "OpenRCX"
*PROGRAM "Parallel Extraction"
*VERSION "1.0"
*DESIGN_FLOW "NAME_SCOPE LOCAL" "PIN_CAP NONE"
*DIVIDER /
*DELIMITER :
*BUS_DELIMITER []
*T_UNIT 1 NS
*C_UNIT 1 PF
*R_UNIT 1 OHM
*L_UNIT 1 HENRY

*NAME_MAP
*1 analog_io[0]
*2 analog_io[10]
*3 analog_io[11]
*4 analog_io[12]
*5 analog_io[13]
*6 analog_io[14]
*7 analog_io[15]
*8 analog_io[16]
*9 analog_io[17]
*10 analog_io[18]
*11 analog_io[19]
*12 analog_io[1]
*13 analog_io[20]
*14 analog_io[21]
*15 analog_io[22]
*16 analog_io[23]
*17 analog_io[24]
*18 analog_io[25]
*19 analog_io[26]
*20 analog_io[27]
*21 analog_io[28]
*22 analog_io[2]
*23 analog_io[3]
*24 analog_io[4]
*25 analog_io[5]
*26 analog_io[6]
*27 analog_io[7]
*28 analog_io[8]
*29 analog_io[9]
*30 io_in[0]
*31 io_in[10]
*32 io_in[11]
*33 io_in[12]
*34 io_in[13]
*35 io_in[14]
*36 io_in[15]
*37 io_in[16]
*38 io_in[17]
*39 io_in[18]
*40 io_in[19]
*41 io_in[1]
*42 io_in[20]
*43 io_in[21]
*44 io_in[22]
*45 io_in[23]
*46 io_in[24]
*47 io_in[25]
*48 io_in[26]
*49 io_in[27]
*50 io_in[28]
*51 io_in[29]
*52 io_in[2]
*53 io_in[30]
*54 io_in[31]
*55 io_in[32]
*56 io_in[33]
*57 io_in[34]
*58 io_in[35]
*59 io_in[36]
*60 io_in[37]
*61 io_in[3]
*62 io_in[4]
*63 io_in[5]
*64 io_in[6]
*65 io_in[7]
*66 io_in[8]
*67 io_in[9]
*68 io_oeb[0]
*69 io_oeb[10]
*70 io_oeb[11]
*71 io_oeb[12]
*72 io_oeb[13]
*73 io_oeb[14]
*74 io_oeb[15]
*75 io_oeb[16]
*76 io_oeb[17]
*77 io_oeb[18]
*78 io_oeb[19]
*79 io_oeb[1]
*80 io_oeb[20]
*81 io_oeb[21]
*82 io_oeb[22]
*83 io_oeb[23]
*84 io_oeb[24]
*85 io_oeb[25]
*86 io_oeb[26]
*87 io_oeb[27]
*88 io_oeb[28]
*89 io_oeb[29]
*90 io_oeb[2]
*91 io_oeb[30]
*92 io_oeb[31]
*93 io_oeb[32]
*94 io_oeb[33]
*95 io_oeb[34]
*96 io_oeb[35]
*97 io_oeb[36]
*98 io_oeb[37]
*99 io_oeb[3]
*100 io_oeb[4]
*101 io_oeb[5]
*102 io_oeb[6]
*103 io_oeb[7]
*104 io_oeb[8]
*105 io_oeb[9]
*106 io_out[0]
*107 io_out[10]
*108 io_out[11]
*109 io_out[12]
*110 io_out[13]
*111 io_out[14]
*112 io_out[15]
*113 io_out[16]
*114 io_out[17]
*115 io_out[18]
*116 io_out[19]
*117 io_out[1]
*118 io_out[20]
*119 io_out[21]
*120 io_out[22]
*121 io_out[23]
*122 io_out[24]
*123 io_out[25]
*124 io_out[26]
*125 io_out[27]
*126 io_out[28]
*127 io_out[29]
*128 io_out[2]
*129 io_out[30]
*130 io_out[31]
*131 io_out[32]
*132 io_out[33]
*133 io_out[34]
*134 io_out[35]
*135 io_out[36]
*136 io_out[37]
*137 io_out[3]
*138 io_out[4]
*139 io_out[5]
*140 io_out[6]
*141 io_out[7]
*142 io_out[8]
*143 io_out[9]
*146 wb_clk_i
*147 wb_rst_i
*148 wbs_ack_o
*149 wbs_adr_i[0]
*150 wbs_adr_i[10]
*151 wbs_adr_i[11]
*152 wbs_adr_i[12]
*153 wbs_adr_i[13]
*154 wbs_adr_i[14]
*155 wbs_adr_i[15]
*156 wbs_adr_i[16]
*157 wbs_adr_i[17]
*158 wbs_adr_i[18]
*159 wbs_adr_i[19]
*160 wbs_adr_i[1]
*161 wbs_adr_i[20]
*162 wbs_adr_i[21]
*163 wbs_adr_i[22]
*164 wbs_adr_i[23]
*165 wbs_adr_i[24]
*166 wbs_adr_i[25]
*167 wbs_adr_i[26]
*168 wbs_adr_i[27]
*169 wbs_adr_i[28]
*170 wbs_adr_i[29]
*171 wbs_adr_i[2]
*172 wbs_adr_i[30]
*173 wbs_adr_i[31]
*174 wbs_adr_i[3]
*175 wbs_adr_i[4]
*176 wbs_adr_i[5]
*177 wbs_adr_i[6]
*178 wbs_adr_i[7]
*179 wbs_adr_i[8]
*180 wbs_adr_i[9]
*181 wbs_cyc_i
*182 wbs_dat_i[0]
*183 wbs_dat_i[10]
*184 wbs_dat_i[11]
*185 wbs_dat_i[12]
*186 wbs_dat_i[13]
*187 wbs_dat_i[14]
*188 wbs_dat_i[15]
*189 wbs_dat_i[16]
*190 wbs_dat_i[17]
*191 wbs_dat_i[18]
*192 wbs_dat_i[19]
*193 wbs_dat_i[1]
*194 wbs_dat_i[20]
*195 wbs_dat_i[21]
*196 wbs_dat_i[22]
*197 wbs_dat_i[23]
*198 wbs_dat_i[24]
*199 wbs_dat_i[25]
*200 wbs_dat_i[26]
*201 wbs_dat_i[27]
*202 wbs_dat_i[28]
*203 wbs_dat_i[29]
*204 wbs_dat_i[2]
*205 wbs_dat_i[30]
*206 wbs_dat_i[31]
*207 wbs_dat_i[3]
*208 wbs_dat_i[4]
*209 wbs_dat_i[5]
*210 wbs_dat_i[6]
*211 wbs_dat_i[7]
*212 wbs_dat_i[8]
*213 wbs_dat_i[9]
*214 wbs_dat_o[0]
*215 wbs_dat_o[10]
*216 wbs_dat_o[11]
*217 wbs_dat_o[12]
*218 wbs_dat_o[13]
*219 wbs_dat_o[14]
*220 wbs_dat_o[15]
*221 wbs_dat_o[16]
*222 wbs_dat_o[17]
*223 wbs_dat_o[18]
*224 wbs_dat_o[19]
*225 wbs_dat_o[1]
*226 wbs_dat_o[20]
*227 wbs_dat_o[21]
*228 wbs_dat_o[22]
*229 wbs_dat_o[23]
*230 wbs_dat_o[24]
*231 wbs_dat_o[25]
*232 wbs_dat_o[26]
*233 wbs_dat_o[27]
*234 wbs_dat_o[28]
*235 wbs_dat_o[29]
*236 wbs_dat_o[2]
*237 wbs_dat_o[30]
*238 wbs_dat_o[31]
*239 wbs_dat_o[3]
*240 wbs_dat_o[4]
*241 wbs_dat_o[5]
*242 wbs_dat_o[6]
*243 wbs_dat_o[7]
*244 wbs_dat_o[8]
*245 wbs_dat_o[9]
*246 wbs_sel_i[0]
*247 wbs_sel_i[1]
*248 wbs_sel_i[2]
*249 wbs_sel_i[3]
*250 wbs_stb_i
*251 wbs_we_i
*252 x1\[0\]
*253 x1\[10\]
*254 x1\[11\]
*255 x1\[12\]
*256 x1\[13\]
*257 x1\[14\]
*258 x1\[15\]
*259 x1\[1\]
*260 x1\[2\]
*261 x1\[3\]
*262 x1\[4\]
*263 x1\[5\]
*264 x1\[6\]
*265 x1\[7\]
*266 x1\[8\]
*267 x1\[9\]
*268 x2\[0\]
*269 x2\[10\]
*270 x2\[11\]
*271 x2\[12\]
*272 x2\[13\]
*273 x2\[14\]
*274 x2\[15\]
*275 x2\[1\]
*276 x2\[2\]
*277 x2\[3\]
*278 x2\[4\]
*279 x2\[5\]
*280 x2\[6\]
*281 x2\[7\]
*282 x2\[8\]
*283 x2\[9\]
*284 x3\[0\]
*285 x3\[10\]
*286 x3\[11\]
*287 x3\[12\]
*288 x3\[13\]
*289 x3\[14\]
*290 x3\[15\]
*291 x3\[1\]
*292 x3\[2\]
*293 x3\[3\]
*294 x3\[4\]
*295 x3\[5\]
*296 x3\[6\]
*297 x3\[7\]
*298 x3\[8\]
*299 x3\[9\]
*300 x4\[0\]
*301 x4\[10\]
*302 x4\[11\]
*303 x4\[12\]
*304 x4\[13\]
*305 x4\[14\]
*306 x4\[15\]
*307 x4\[1\]
*308 x4\[2\]
*309 x4\[3\]
*310 x4\[4\]
*311 x4\[5\]
*312 x4\[6\]
*313 x4\[7\]
*314 x4\[8\]
*315 x4\[9\]
*316 x5\[0\]
*317 x5\[10\]
*318 x5\[11\]
*319 x5\[12\]
*320 x5\[13\]
*321 x5\[14\]
*322 x5\[15\]
*323 x5\[1\]
*324 x5\[2\]
*325 x5\[3\]
*326 x5\[4\]
*327 x5\[5\]
*328 x5\[6\]
*329 x5\[7\]
*330 x5\[8\]
*331 x5\[9\]
*332 mprj1
*333 mprj2
*334 mprj3
*335 mprj4
*336 mprj5
*337 ro1
*338 ro10
*339 ro11
*340 ro12
*341 ro13
*342 ro14
*343 ro15
*344 ro16
*345 ro2
*346 ro3
*347 ro4
*348 ro5
*349 ro6
*350 ro7
*351 ro8
*352 ro9

*PORTS
analog_io[0] I
analog_io[10] I
analog_io[11] I
analog_io[12] I
analog_io[13] I
analog_io[14] I
analog_io[15] I
analog_io[16] I
analog_io[17] I
analog_io[18] I
analog_io[19] I
analog_io[1] I
analog_io[20] I
analog_io[21] I
analog_io[22] I
analog_io[23] I
analog_io[24] I
analog_io[25] I
analog_io[26] I
analog_io[27] I
analog_io[28] I
analog_io[2] I
analog_io[3] I
analog_io[4] I
analog_io[5] I
analog_io[6] I
analog_io[7] I
analog_io[8] I
analog_io[9] I
io_in[0] I
io_in[10] I
io_in[11] I
io_in[12] I
io_in[13] I
io_in[14] I
io_in[15] I
io_in[16] I
io_in[17] I
io_in[18] I
io_in[19] I
io_in[1] I
io_in[20] I
io_in[21] I
io_in[22] I
io_in[23] I
io_in[24] I
io_in[25] I
io_in[26] I
io_in[27] I
io_in[28] I
io_in[29] I
io_in[2] I
io_in[30] I
io_in[31] I
io_in[32] I
io_in[33] I
io_in[34] I
io_in[35] I
io_in[36] I
io_in[37] I
io_in[3] I
io_in[4] I
io_in[5] I
io_in[6] I
io_in[7] I
io_in[8] I
io_in[9] I
io_oeb[0] O
io_oeb[10] O
io_oeb[11] O
io_oeb[12] O
io_oeb[13] O
io_oeb[14] O
io_oeb[15] O
io_oeb[16] O
io_oeb[17] O
io_oeb[18] O
io_oeb[19] O
io_oeb[1] O
io_oeb[20] O
io_oeb[21] O
io_oeb[22] O
io_oeb[23] O
io_oeb[24] O
io_oeb[25] O
io_oeb[26] O
io_oeb[27] O
io_oeb[28] O
io_oeb[29] O
io_oeb[2] O
io_oeb[30] O
io_oeb[31] O
io_oeb[32] O
io_oeb[33] O
io_oeb[34] O
io_oeb[35] O
io_oeb[36] O
io_oeb[37] O
io_oeb[3] O
io_oeb[4] O
io_oeb[5] O
io_oeb[6] O
io_oeb[7] O
io_oeb[8] O
io_oeb[9] O
io_out[0] O
io_out[10] O
io_out[11] O
io_out[12] O
io_out[13] O
io_out[14] O
io_out[15] O
io_out[16] O
io_out[17] O
io_out[18] O
io_out[19] O
io_out[1] O
io_out[20] O
io_out[21] O
io_out[22] O
io_out[23] O
io_out[24] O
io_out[25] O
io_out[26] O
io_out[27] O
io_out[28] O
io_out[29] O
io_out[2] O
io_out[30] O
io_out[31] O
io_out[32] O
io_out[33] O
io_out[34] O
io_out[35] O
io_out[36] O
io_out[37] O
io_out[3] O
io_out[4] O
io_out[5] O
io_out[6] O
io_out[7] O
io_out[8] O
io_out[9] O
wb_clk_i I
wb_rst_i I
wbs_ack_o O
wbs_adr_i[0] I
wbs_adr_i[10] I
wbs_adr_i[11] I
wbs_adr_i[12] I
wbs_adr_i[13] I
wbs_adr_i[14] I
wbs_adr_i[15] I
wbs_adr_i[16] I
wbs_adr_i[17] I
wbs_adr_i[18] I
wbs_adr_i[19] I
wbs_adr_i[1] I
wbs_adr_i[20] I
wbs_adr_i[21] I
wbs_adr_i[22] I
wbs_adr_i[23] I
wbs_adr_i[24] I
wbs_adr_i[25] I
wbs_adr_i[26] I
wbs_adr_i[27] I
wbs_adr_i[28] I
wbs_adr_i[29] I
wbs_adr_i[2] I
wbs_adr_i[30] I
wbs_adr_i[31] I
wbs_adr_i[3] I
wbs_adr_i[4] I
wbs_adr_i[5] I
wbs_adr_i[6] I
wbs_adr_i[7] I
wbs_adr_i[8] I
wbs_adr_i[9] I
wbs_cyc_i I
wbs_dat_i[0] I
wbs_dat_i[10] I
wbs_dat_i[11] I
wbs_dat_i[12] I
wbs_dat_i[13] I
wbs_dat_i[14] I
wbs_dat_i[15] I
wbs_dat_i[16] I
wbs_dat_i[17] I
wbs_dat_i[18] I
wbs_dat_i[19] I
wbs_dat_i[1] I
wbs_dat_i[20] I
wbs_dat_i[21] I
wbs_dat_i[22] I
wbs_dat_i[23] I
wbs_dat_i[24] I
wbs_dat_i[25] I
wbs_dat_i[26] I
wbs_dat_i[27] I
wbs_dat_i[28] I
wbs_dat_i[29] I
wbs_dat_i[2] I
wbs_dat_i[30] I
wbs_dat_i[31] I
wbs_dat_i[3] I
wbs_dat_i[4] I
wbs_dat_i[5] I
wbs_dat_i[6] I
wbs_dat_i[7] I
wbs_dat_i[8] I
wbs_dat_i[9] I
wbs_dat_o[0] O
wbs_dat_o[10] O
wbs_dat_o[11] O
wbs_dat_o[12] O
wbs_dat_o[13] O
wbs_dat_o[14] O
wbs_dat_o[15] O
wbs_dat_o[16] O
wbs_dat_o[17] O
wbs_dat_o[18] O
wbs_dat_o[19] O
wbs_dat_o[1] O
wbs_dat_o[20] O
wbs_dat_o[21] O
wbs_dat_o[22] O
wbs_dat_o[23] O
wbs_dat_o[24] O
wbs_dat_o[25] O
wbs_dat_o[26] O
wbs_dat_o[27] O
wbs_dat_o[28] O
wbs_dat_o[29] O
wbs_dat_o[2] O
wbs_dat_o[30] O
wbs_dat_o[31] O
wbs_dat_o[3] O
wbs_dat_o[4] O
wbs_dat_o[5] O
wbs_dat_o[6] O
wbs_dat_o[7] O
wbs_dat_o[8] O
wbs_dat_o[9] O
wbs_sel_i[0] I
wbs_sel_i[1] I
wbs_sel_i[2] I
wbs_sel_i[3] I
wbs_stb_i I
wbs_we_i I

*D_NET *30 0.416434
*CONN
*P io_in[0] I
*I *344:s1 I *D sky130_osu_ring_oscillator_mpr2ya_8_b0r2
*I *343:s1 I *D sky130_osu_ring_oscillator_mpr2xa_8_b0r2
*I *342:s1 I *D sky130_osu_ring_oscillator_mpr2et_8_b0r2
*I *350:s1 I *D sky130_osu_ring_oscillator_mpr2xa_8_b0r1
*I *347:s1 I *D sky130_osu_ring_oscillator_mpr2ct_8_b0r1
*I *345:s1 I *D sky130_osu_ring_oscillator_mpr2at_8_b0r1
*I *337:s1 I *D sky130_osu_ring_oscillator_mpr2aa_8_b0r1
*I *346:s1 I *D sky130_osu_ring_oscillator_mpr2ca_8_b0r1
*I *348:s1 I *D sky130_osu_ring_oscillator_mpr2ea_8_b0r1
*I *349:s1 I *D sky130_osu_ring_oscillator_mpr2et_8_b0r1
*I *351:s1 I *D sky130_osu_ring_oscillator_mpr2ya_8_b0r1
*I *352:s1 I *D sky130_osu_ring_oscillator_mpr2aa_8_b0r2
*I *338:s1 I *D sky130_osu_ring_oscillator_mpr2at_8_b0r2
*I *339:s1 I *D sky130_osu_ring_oscillator_mpr2ca_8_b0r2
*I *340:s1 I *D sky130_osu_ring_oscillator_mpr2ct_8_b0r2
*I *341:s1 I *D sky130_osu_ring_oscillator_mpr2ea_8_b0r2
*CAP
1 io_in[0] 0.0689495
2 *344:s1 0.000557956
3 *343:s1 3.51319e-05
4 *342:s1 0.000238648
5 *350:s1 9.49186e-05
6 *347:s1 0.000157206
7 *345:s1 0.000549713
8 *337:s1 0.000765235
9 *346:s1 0.000211206
10 *348:s1 0.000407593
11 *349:s1 0.000593267
12 *351:s1 0.000117838
13 *352:s1 0.000481352
14 *338:s1 0.000592004
15 *339:s1 0.000181844
16 *340:s1 0.000430242
17 *341:s1 0.000674549
18 *30:251 0.00452781
19 *30:249 0.00383868
20 *30:245 0.000625813
21 *30:243 0.00317696
22 *30:229 0.00625071
23 *30:227 0.00327706
24 *30:223 0.00521928
25 *30:208 0.00869773
26 *30:206 0.00480254
27 *30:192 0.00626982
28 *30:190 0.00527542
29 *30:184 0.00503541
30 *30:182 0.0043174
31 *30:164 0.00111284
32 *30:148 0.00340324
33 *30:146 0.00319121
34 *30:132 0.00398154
35 *30:117 0.00522157
36 *30:109 0.004922
37 *30:107 0.00325006
38 *30:92 0.00086106
39 *30:88 0.00329847
40 *30:86 0.00371991
41 *30:66 0.00599931
42 *30:51 0.00908037
43 *30:49 0.005677
44 *30:35 0.00628443
45 *30:33 0.00465542
46 *30:27 0.000975046
47 *30:21 0.00304452
48 *30:19 0.00291649
49 *30:15 0.00335226
50 *30:9 0.0413218
51 *30:7 0.0388855
52 *30:5 0.0689495
53 *337:s1 *337:s2 3.56707e-06
54 *337:s1 *337:start 0
55 *337:s1 *41:406 1.88482e-05
56 *338:s1 *338:start 3.38329e-05
57 *340:s1 *340:start 0.000164334
58 *341:s1 *341:start 0.000160952
59 *346:s1 *346:start 2.78002e-05
60 *349:s1 *349:start 2.10824e-05
61 *352:s1 *352:start 9.84229e-05
62 *30:9 *62:37 0.000672309
63 *30:9 *62:39 0
64 *30:15 *41:13 0.00517129
65 *30:15 *41:21 0.00213985
66 *30:19 *41:21 0.000231962
67 *30:21 *41:23 0.0065029
68 *30:49 *41:45 0.00123902
69 *30:49 *41:75 0.00040103
70 *30:88 *41:123 0.00663246
71 *30:92 *41:127 0.000595322
72 *30:107 *41:127 0.000324656
73 *30:117 *41:155 0.00122295
74 *30:132 *41:155 0.000282516
75 *30:132 *41:161 0.0068134
76 *30:146 *41:161 0.000726658
77 *30:146 *41:185 0.00045423
78 *30:146 *41:187 0.000116652
79 *30:148 *41:187 0.00619304
80 *30:164 *351:s2 0
81 *30:182 *351:s2 0
82 *30:184 *264:10 0
83 *30:192 *41:215 0.000212476
84 *30:192 *41:263 0.000938128
85 *30:206 *41:263 0.000165912
86 *30:229 *41:363 0.00667257
87 *30:243 *41:363 0.00104158
88 *30:243 *41:386 0.00663579
89 *30:249 *345:start 6.17008e-05
90 *30:251 *41:386 0
91 *30:251 *41:406 0
*RES
1 io_in[0] *30:5 213.377 
2 *30:5 *30:7 3.41 
3 *30:7 *30:9 778.482 
4 *30:9 *30:15 14.961 
5 *30:15 *30:19 4.79023 
6 *30:19 *30:21 82.0893 
7 *30:21 *30:27 4.94377 
8 *30:27 *30:33 4.83097 
9 *30:33 *30:35 85.7321 
10 *30:35 *30:49 36.9936 
11 *30:49 *30:51 78.9018 
12 *30:51 *341:s1 27.7545 
13 *30:51 *30:66 93.9286 
14 *30:66 *340:s1 14.2455 
15 *30:66 *30:86 21.2063 
16 *30:86 *30:88 82.6964 
17 *30:88 *30:92 5.36677 
18 *30:92 *339:s1 4.1479 
19 *30:92 *30:107 4.07897 
20 *30:107 *30:109 64.4821 
21 *30:109 *30:117 37.8983 
22 *30:117 *338:s1 25.7107 
23 *30:117 *30:132 92.1071 
24 *30:132 *352:s1 14.2634 
25 *30:132 *30:146 19.1339 
26 *30:146 *30:148 77.2321 
27 *30:148 *30:164 13.6833 
28 *30:164 *351:s1 5.77607 
29 *30:164 *30:182 3.83613 
30 *30:182 *30:184 85.7321 
31 *30:184 *30:190 9.10107 
32 *30:190 *30:192 98.9375 
33 *30:192 *349:s1 15.75 
34 *30:192 *30:206 24.3482 
35 *30:206 *30:208 72.5804 
36 *30:208 *348:s1 21.8982 
37 *30:208 *30:223 92.5625 
38 *30:223 *30:227 8.26786 
39 *30:227 *30:229 85.8661 
40 *30:229 *346:s1 8.62054 
41 *30:229 *30:243 95.75 
42 *30:243 *30:245 4.5 
43 *30:245 *30:249 6.26786 
44 *30:249 *30:251 77.5089 
45 *30:251 *337:s1 19.1071 
46 *30:245 *345:s1 19.9562 
47 *30:223 *347:s1 7.74554 
48 *30:184 *350:s1 1.88393 
49 *30:35 *342:s1 5.12946 
50 *30:27 *343:s1 8.31 
51 *30:15 *344:s1 18.6627 
*END

*D_NET *41 0.447432
*CONN
*P io_in[1] I
*I *344:s2 I *D sky130_osu_ring_oscillator_mpr2ya_8_b0r2
*I *338:s2 I *D sky130_osu_ring_oscillator_mpr2at_8_b0r2
*I *337:s2 I *D sky130_osu_ring_oscillator_mpr2aa_8_b0r1
*I *345:s2 I *D sky130_osu_ring_oscillator_mpr2at_8_b0r1
*I *346:s2 I *D sky130_osu_ring_oscillator_mpr2ca_8_b0r1
*I *347:s2 I *D sky130_osu_ring_oscillator_mpr2ct_8_b0r1
*I *348:s2 I *D sky130_osu_ring_oscillator_mpr2ea_8_b0r1
*I *349:s2 I *D sky130_osu_ring_oscillator_mpr2et_8_b0r1
*I *350:s2 I *D sky130_osu_ring_oscillator_mpr2xa_8_b0r1
*I *351:s2 I *D sky130_osu_ring_oscillator_mpr2ya_8_b0r1
*I *352:s2 I *D sky130_osu_ring_oscillator_mpr2aa_8_b0r2
*I *339:s2 I *D sky130_osu_ring_oscillator_mpr2ca_8_b0r2
*I *340:s2 I *D sky130_osu_ring_oscillator_mpr2ct_8_b0r2
*I *341:s2 I *D sky130_osu_ring_oscillator_mpr2ea_8_b0r2
*I *342:s2 I *D sky130_osu_ring_oscillator_mpr2et_8_b0r2
*I *343:s2 I *D sky130_osu_ring_oscillator_mpr2xa_8_b0r2
*CAP
1 io_in[1] 0.0609744
2 *344:s2 0.000604558
3 *338:s2 0.00226032
4 *337:s2 0.00236903
5 *345:s2 0.00203137
6 *346:s2 0.00189382
7 *347:s2 0.00237404
8 *348:s2 0.00357374
9 *349:s2 0.000221851
10 *350:s2 6.60876e-05
11 *351:s2 0.00193188
12 *352:s2 0.00197022
13 *339:s2 0.000282496
14 *340:s2 0.00176809
15 *341:s2 0.00186247
16 *342:s2 0.00160135
17 *343:s2 0.00177641
18 *41:406 0.00605876
19 *41:386 0.00864933
20 *41:363 0.00798841
21 *41:361 0.00542264
22 *41:321 0.00252531
23 *41:319 0.00464892
24 *41:287 0.00449118
25 *41:285 0.00325556
26 *41:263 0.00478484
27 *41:243 0.00789847
28 *41:241 0.00355507
29 *41:225 0.00169846
30 *41:215 0.00589088
31 *41:210 0
32 *41:187 0.00930595
33 *41:185 0.00327464
34 *41:161 0.00508039
35 *41:159 0.00297043
36 *41:155 0.00479102
37 *41:145 0.00561489
38 *41:143 0.00344362
39 *41:127 0.00140699
40 *41:123 0.00373214
41 *41:100 0.00957605
42 *41:77 0.00691277
43 *41:75 0.00446056
44 *41:45 0.00865588
45 *41:27 0.00477411
46 *41:23 0.00296827
47 *41:21 0.00376702
48 *41:13 0.00840305
49 *41:9 0.0359073
50 *41:7 0.029244
51 *41:5 0.0609744
52 *342:s2 *52:61 0.00298659
53 *343:s2 *52:55 0.000580186
54 *348:s2 *278:12 0.000801238
55 *41:13 *344:s3 0.00203554
56 *41:13 *52:13 0.00916364
57 *41:45 *52:57 0.00738643
58 *41:75 *52:57 4.77305e-05
59 *337:s1 *337:s2 3.56707e-06
60 *337:s1 *41:406 1.88482e-05
61 *30:15 *41:13 0.00517129
62 *30:15 *41:21 0.00213985
63 *30:19 *41:21 0.000231962
64 *30:21 *41:23 0.0065029
65 *30:49 *41:45 0.00123902
66 *30:49 *41:75 0.00040103
67 *30:88 *41:123 0.00663246
68 *30:92 *41:127 0.000595322
69 *30:107 *41:127 0.000324656
70 *30:117 *41:155 0.00122295
71 *30:132 *41:155 0.000282516
72 *30:132 *41:161 0.0068134
73 *30:146 *41:161 0.000726658
74 *30:146 *41:185 0.00045423
75 *30:146 *41:187 0.000116652
76 *30:148 *41:187 0.00619304
77 *30:164 *351:s2 0
78 *30:182 *351:s2 0
79 *30:192 *41:215 0.000212476
80 *30:192 *41:263 0.000938128
81 *30:206 *41:263 0.000165912
82 *30:229 *41:363 0.00667257
83 *30:243 *41:363 0.00104158
84 *30:243 *41:386 0.00663579
85 *30:251 *41:386 0
86 *30:251 *41:406 0
*RES
1 io_in[1] *41:5 188.514 
2 *41:5 *41:7 3.41 
3 *41:7 *41:9 601.804 
4 *41:9 *41:13 36.3915 
5 *41:13 *41:21 8.4484 
6 *41:21 *41:23 83.8036 
7 *41:23 *41:27 6.83929 
8 *41:27 *343:s2 26.0328 
9 *41:27 *41:45 93.625 
10 *41:45 *342:s2 32.0564 
11 *41:45 *41:75 91.8036 
12 *41:75 *41:77 1.35714 
13 *41:77 *341:s2 32.7318 
14 *41:77 *41:100 98.4821 
15 *41:100 *340:s2 36.741 
16 *41:100 *41:123 84.5179 
17 *41:123 *41:127 6.5919 
18 *41:127 *339:s2 4.73275 
19 *41:127 *41:143 4.2137 
20 *41:143 *41:145 66.3036 
21 *41:145 *41:155 48.9007 
22 *41:155 *41:159 3.74527 
23 *41:159 *41:161 92.4107 
24 *41:161 *352:s2 24.654 
25 *41:161 *41:185 12.7446 
26 *41:185 *41:187 86.9464 
27 *41:187 *351:s2 24.8306 
28 *351:s2 *41:210 0.194444 
29 *41:187 *41:215 88.7679 
30 *41:215 *41:225 11.4636 
31 *41:225 *350:s2 1.27679 
32 *41:225 *41:241 11.1518 
33 *41:241 *41:243 70.6339 
34 *41:243 *41:263 43.6678 
35 *41:263 *349:s2 5.92335 
36 *41:263 *41:285 3.64657 
37 *41:285 *41:287 62.9286 
38 *41:287 *348:s2 41.5536 
39 *348:s2 *41:319 47.6415 
40 *41:319 *41:321 49.4196 
41 *41:321 *347:s2 6.61161 
42 *347:s2 *41:361 29.1106 
43 *41:361 *41:363 96.0536 
44 *41:363 *346:s2 28.3713 
45 *41:363 *41:386 86.9464 
46 *41:386 *345:s2 16.0505 
47 *41:386 *41:406 74.8036 
48 *41:406 *337:s2 24.1308 
49 *41:155 *338:s2 24.0271 
50 *41:13 *344:s2 19.785 
*END

*D_NET *52 0.462428
*CONN
*P io_in[2] I
*I *337:s3 I *D sky130_osu_ring_oscillator_mpr2aa_8_b0r1
*I *345:s3 I *D sky130_osu_ring_oscillator_mpr2at_8_b0r1
*I *346:s3 I *D sky130_osu_ring_oscillator_mpr2ca_8_b0r1
*I *347:s3 I *D sky130_osu_ring_oscillator_mpr2ct_8_b0r1
*I *348:s3 I *D sky130_osu_ring_oscillator_mpr2ea_8_b0r1
*I *349:s3 I *D sky130_osu_ring_oscillator_mpr2et_8_b0r1
*I *350:s3 I *D sky130_osu_ring_oscillator_mpr2xa_8_b0r1
*I *351:s3 I *D sky130_osu_ring_oscillator_mpr2ya_8_b0r1
*I *352:s3 I *D sky130_osu_ring_oscillator_mpr2aa_8_b0r2
*I *338:s3 I *D sky130_osu_ring_oscillator_mpr2at_8_b0r2
*I *339:s3 I *D sky130_osu_ring_oscillator_mpr2ca_8_b0r2
*I *340:s3 I *D sky130_osu_ring_oscillator_mpr2ct_8_b0r2
*I *341:s3 I *D sky130_osu_ring_oscillator_mpr2ea_8_b0r2
*I *342:s3 I *D sky130_osu_ring_oscillator_mpr2et_8_b0r2
*I *343:s3 I *D sky130_osu_ring_oscillator_mpr2xa_8_b0r2
*I *344:s3 I *D sky130_osu_ring_oscillator_mpr2ya_8_b0r2
*CAP
1 io_in[2] 0.0573326
2 *337:s3 0.00272076
3 *345:s3 0.00213763
4 *346:s3 0.00286868
5 *347:s3 0.00251978
6 *348:s3 0.00252231
7 *349:s3 0.00222879
8 *350:s3 0.00226894
9 *351:s3 0.00226386
10 *352:s3 0.00244438
11 *338:s3 0.0025994
12 *339:s3 0.00289117
13 *340:s3 0.00221621
14 *341:s3 0.00209836
15 *342:s3 0.000639506
16 *343:s3 0.00050617
17 *344:s3 0.00196899
18 *52:464 0.00482057
19 *52:462 0.00264766
20 *52:432 0.00306495
21 *52:426 0.00228865
22 *52:403 0.00519202
23 *52:401 0.00264338
24 *52:397 0.00435338
25 *52:372 0.00887945
26 *52:370 0.00476514
27 *52:340 0.00305193
28 *52:338 0.0030394
29 *52:312 0.00589987
30 *52:304 0.00519162
31 *52:302 0.00544474
32 *52:277 0.00315374
33 *52:275 0.00145545
34 *52:273 0.00218521
35 *52:243 0.00323751
36 *52:237 0.00395515
37 *52:217 0.00645319
38 *52:211 0.00340115
39 *52:209 0.0031036
40 *52:187 0.0031496
41 *52:183 0.00212
42 *52:181 0.00216079
43 *52:150 0.00504246
44 *52:148 0.00289986
45 *52:144 0.00205337
46 *52:137 0
47 *52:118 0.00632982
48 *52:116 0.00353675
49 *52:91 0.0022353
50 *52:89 0.00457765
51 *52:87 0.00620847
52 *52:61 0.0045581
53 *52:57 0.00508478
54 *52:55 0.00495897
55 *52:37 0.00459471
56 *52:31 0.00527233
57 *52:29 0.00334576
58 *52:13 0.0149228
59 *52:11 0.0129538
60 *52:9 0.0206632
61 *52:7 0.0206632
62 *52:5 0.0573326
63 *338:s3 *61:211 0
64 *338:s3 *314:15 0
65 *340:s3 *340:s4 0.00177354
66 *340:s3 *61:125 0.000415745
67 *341:s3 *341:s4 0.000592044
68 *341:s3 *341:s5 0.000530884
69 *345:s3 *345:s4 0.000263131
70 *345:s3 *61:441 2.97876e-05
71 *345:s3 *62:361 0.000257136
72 *345:s3 *252:18 9.69019e-05
73 *346:s3 *61:435 0.00033579
74 *347:s3 *61:406 0
75 *349:s3 *61:338 0.000293747
76 *349:s3 *294:14 0
77 *351:s3 *61:263 0.000112524
78 *352:s3 *62:219 0
79 *52:31 *62:39 0.00243332
80 *52:31 *62:61 0.000157597
81 *52:31 *62:63 0
82 *52:89 *61:93 0
83 *52:116 *341:s5 0.000327706
84 *52:116 *62:89 0.000124389
85 *52:118 *61:121 0
86 *52:118 *62:114 0.00390846
87 *52:118 *62:140 0
88 *52:144 *62:140 0
89 *52:148 *62:140 0.00352701
90 *52:150 *62:140 0.00101808
91 *52:150 *62:144 0.000314687
92 *52:150 *62:164 0.00088449
93 *52:183 *62:166 0.00577408
94 *52:183 *328:10 0.00387182
95 *52:211 *61:213 0.00673618
96 *52:211 *62:219 0
97 *52:237 *61:263 0.00219235
98 *52:237 *62:219 0
99 *52:243 *61:263 0.000113739
100 *52:273 *61:263 2.69575e-05
101 *52:273 *61:265 0.00136099
102 *52:273 *295:14 0.000824205
103 *52:275 *61:265 0.0018279
104 *52:275 *295:14 0.00279471
105 *52:275 *311:6 0
106 *52:304 *62:257 0
107 *52:304 *62:275 0.000931227
108 *52:304 *256:18 0
109 *52:312 *61:338 7.4607e-05
110 *52:312 *61:340 0.000155504
111 *52:338 *61:340 0.00633026
112 *52:338 *62:297 0
113 *52:370 *62:295 0.000402919
114 *52:370 *62:297 0
115 *52:370 *291:18 0
116 *52:372 *62:297 0
117 *52:372 *62:315 0
118 *52:372 *291:18 0
119 *52:397 *62:315 0
120 *52:397 *291:18 0
121 *52:401 *62:315 0
122 *52:401 *291:18 0
123 *52:403 *61:437 0.000105716
124 *52:403 *62:331 0
125 *52:403 *291:18 0.000597395
126 *52:426 *61:437 0.0069629
127 *52:426 *291:18 0.00303721
128 *52:432 *61:441 0
129 *52:462 *61:460 0.000756342
130 *52:462 *62:361 4.77305e-05
131 *52:462 *252:18 0.000783383
132 *52:464 *337:s4 2.87585e-05
133 *52:464 *61:460 0.00197465
134 *52:464 *252:18 0
135 *342:s2 *52:61 0.00298659
136 *343:s2 *52:55 0.000580186
137 *41:13 *344:s3 0.00203554
138 *41:13 *52:13 0.00916364
139 *41:45 *52:57 0.00738643
140 *41:75 *52:57 4.77305e-05
*RES
1 io_in[2] *52:5 165.813 
2 *52:5 *52:7 3.41 
3 *52:7 *52:9 425.125 
4 *52:9 *52:11 3.41 
5 *52:11 *52:13 47.7551 
6 *52:13 *344:s3 26.5954 
7 *52:13 *52:29 3.41 
8 *52:29 *52:31 89.9821 
9 *52:31 *52:37 12.6323 
10 *52:37 *343:s3 14.5938 
11 *52:37 *52:55 16.874 
12 *52:55 *52:57 91.1964 
13 *52:57 *52:61 11.9609 
14 *52:61 *342:s3 20.7677 
15 *52:61 *52:87 8.4296 
16 *52:87 *52:89 93.0179 
17 *52:89 *52:91 3.41 
18 *52:91 *341:s3 23.8263 
19 *52:91 *52:116 4.1056 
20 *52:116 *52:118 96.6607 
21 *52:118 *340:s3 30.2114 
22 *340:s3 *52:137 0.194444 
23 *52:118 *52:144 14.4643 
24 *52:144 *52:148 43.7857 
25 *52:148 *52:150 43.8036 
26 *52:150 *339:s3 35.8119 
27 *52:150 *52:181 13.3932 
28 *52:181 *52:183 85.125 
29 *52:183 *52:187 4.89833 
30 *52:187 *338:s3 27.9936 
31 *52:187 *52:209 3.41 
32 *52:209 *52:211 93.625 
33 *52:211 *52:217 7.58767 
34 *52:217 *352:s3 30.8198 
35 *52:217 *52:237 82.6964 
36 *52:237 *52:243 5.85714 
37 *52:243 *351:s3 25.9913 
38 *52:243 *52:273 31.1964 
39 *52:273 *52:275 64.3036 
40 *52:275 *52:277 3.41 
41 *52:277 *350:s3 21.9838 
42 *52:277 *52:302 6.12347 
43 *52:302 *52:304 97.2679 
44 *52:304 *52:312 10.6151 
45 *52:312 *349:s3 30.7494 
46 *52:312 *52:338 90.5893 
47 *52:338 *52:340 3.41 
48 *52:340 *348:s3 25.2194 
49 *52:340 *52:370 10.5361 
50 *52:370 *52:372 86.6607 
51 *52:372 *347:s3 26.2221 
52 *52:372 *52:397 43.5 
53 *52:397 *52:401 45.4286 
54 *52:401 *52:403 13.125 
55 *52:403 *346:s3 32.1689 
56 *52:403 *52:426 91.8036 
57 *52:426 *52:432 8.02007 
58 *52:432 *345:s3 28.8673 
59 *52:432 *52:462 25.3571 
60 *52:462 *52:464 56.7857 
61 *52:464 *337:s3 28.4578 
*END

*D_NET *61 0.370533
*CONN
*P io_in[3] I
*I *339:s4 I *D sky130_osu_ring_oscillator_mpr2ca_8_b0r2
*I *337:s4 I *D sky130_osu_ring_oscillator_mpr2aa_8_b0r1
*I *345:s4 I *D sky130_osu_ring_oscillator_mpr2at_8_b0r1
*I *346:s4 I *D sky130_osu_ring_oscillator_mpr2ca_8_b0r1
*I *347:s4 I *D sky130_osu_ring_oscillator_mpr2ct_8_b0r1
*I *348:s4 I *D sky130_osu_ring_oscillator_mpr2ea_8_b0r1
*I *349:s4 I *D sky130_osu_ring_oscillator_mpr2et_8_b0r1
*I *350:s4 I *D sky130_osu_ring_oscillator_mpr2xa_8_b0r1
*I *351:s4 I *D sky130_osu_ring_oscillator_mpr2ya_8_b0r1
*I *352:s4 I *D sky130_osu_ring_oscillator_mpr2aa_8_b0r2
*I *338:s4 I *D sky130_osu_ring_oscillator_mpr2at_8_b0r2
*I *340:s4 I *D sky130_osu_ring_oscillator_mpr2ct_8_b0r2
*I *341:s4 I *D sky130_osu_ring_oscillator_mpr2ea_8_b0r2
*I *342:s4 I *D sky130_osu_ring_oscillator_mpr2et_8_b0r2
*I *343:s4 I *D sky130_osu_ring_oscillator_mpr2xa_8_b0r2
*I *344:s4 I *D sky130_osu_ring_oscillator_mpr2ya_8_b0r2
*CAP
1 io_in[3] 0.000854085
2 *339:s4 0
3 *337:s4 0.00116196
4 *345:s4 0.00108883
5 *346:s4 0.00152607
6 *347:s4 0.000124027
7 *348:s4 0.000284183
8 *349:s4 0.00220097
9 *350:s4 6.60876e-05
10 *351:s4 0.00130415
11 *352:s4 0.000277358
12 *338:s4 0.00238511
13 *340:s4 0.00131693
14 *341:s4 0.00137414
15 *342:s4 0.00117663
16 *343:s4 0.000168902
17 *344:s4 0.00046197
18 *61:460 0.00369047
19 *61:458 0.00252851
20 *61:441 0.00150272
21 *61:437 0.00247607
22 *61:435 0.00253938
23 *61:408 0.00626505
24 *61:406 0.0062253
25 *61:374 0.00621674
26 *61:372 0.00464357
27 *61:346 0.00145621
28 *61:340 0.00315501
29 *61:338 0.00369165
30 *61:297 0.00496429
31 *61:295 0.00408486
32 *61:279 0.0013359
33 *61:265 0.00416642
34 *61:263 0.00496211
35 *61:237 0.0032424
36 *61:235 0.00324082
37 *61:233 0.00324082
38 *61:217 0.00148481
39 *61:213 0.00431101
40 *61:211 0.00407764
41 *61:171 0.00511891
42 *61:169 0.00384084
43 *61:161 0.00146329
44 *61:149 0.00427571
45 *61:147 0.00294537
46 *61:125 0.00155669
47 *61:121 0.0051054
48 *61:119 0.00503253
49 *61:93 0.00606204
50 *61:91 0.00564538
51 *61:73 0.00598246
52 *61:65 0.00646014
53 *61:63 0.00332646
54 *61:39 0.00481814
55 *61:37 0.00410144
56 *61:32 9.54407e-06
57 *61:13 0.0696055
58 *61:11 0.0691531
59 *61:9 0.0106707
60 *61:7 0.0115248
61 *337:s4 *316:9 0
62 *338:s4 *315:13 0
63 *341:s4 *341:s5 0.000425392
64 *342:s4 *342:s5 0
65 *342:s4 *320:8 4.27816e-05
66 *342:s4 *320:10 0
67 *348:s4 *310:12 0.000114531
68 *349:s4 *311:6 0
69 *351:s4 *313:16 0
70 *61:9 *62:9 0.00417622
71 *61:39 *305:12 0.00028099
72 *61:73 *62:71 0
73 *61:73 *256:18 0
74 *61:91 *62:85 0
75 *61:91 *256:18 0
76 *61:121 *328:10 0
77 *61:121 *329:10 0
78 *61:121 *330:14 0
79 *61:149 *62:140 0.00247773
80 *61:149 *62:164 0
81 *61:211 *62:203 0.000335651
82 *61:217 *313:22 0.000242359
83 *61:263 *62:219 0
84 *61:263 *295:14 0.00130759
85 *61:297 *295:12 0.000204499
86 *61:338 *310:14 0
87 *61:346 *348:s5 0.000282816
88 *61:372 *310:12 1.6806e-05
89 *61:374 *309:12 0.000385559
90 *61:408 *62:315 0
91 *61:408 *62:331 0
92 *61:435 *62:331 0
93 *61:437 *62:331 0
94 *61:437 *62:335 0.00146095
95 *61:441 *62:361 4.14528e-05
96 *61:460 *62:361 0.000303181
97 *338:s3 *61:211 0
98 *340:s3 *340:s4 0.00177354
99 *340:s3 *61:125 0.000415745
100 *341:s3 *341:s4 0.000592044
101 *345:s3 *345:s4 0.000263131
102 *345:s3 *61:441 2.97876e-05
103 *346:s3 *61:435 0.00033579
104 *347:s3 *61:406 0
105 *349:s3 *61:338 0.000293747
106 *351:s3 *61:263 0.000112524
107 *52:89 *61:93 0
108 *52:118 *61:121 0
109 *52:211 *61:213 0.00673618
110 *52:237 *61:263 0.00219235
111 *52:243 *61:263 0.000113739
112 *52:273 *61:263 2.69575e-05
113 *52:273 *61:265 0.00136099
114 *52:275 *61:265 0.0018279
115 *52:312 *61:338 7.4607e-05
116 *52:312 *61:340 0.000155504
117 *52:338 *61:340 0.00633026
118 *52:403 *61:437 0.000105716
119 *52:426 *61:437 0.0069629
120 *52:432 *61:441 0
121 *52:462 *61:460 0.000756342
122 *52:464 *337:s4 2.87585e-05
123 *52:464 *61:460 0.00197465
*RES
1 io_in[3] *61:7 5.99187 
2 *61:7 *61:9 238.732 
3 *61:9 *61:11 3.41 
4 *61:11 *61:13 213.581 
5 *61:13 *344:s4 18.1222 
6 *344:s4 *61:32 0.200893 
7 *61:13 *61:37 3.41 
8 *61:37 *61:39 84.6696 
9 *61:39 *343:s4 7.86607 
10 *61:39 *61:63 13.116 
11 *61:63 *61:65 56.5893 
12 *61:65 *61:73 44.6967 
13 *61:73 *342:s4 27.8839 
14 *61:73 *61:91 20.6406 
15 *61:91 *61:93 92.4107 
16 *61:93 *341:s4 28.1629 
17 *61:93 *61:119 3.41071 
18 *61:119 *61:121 99.0893 
19 *61:121 *61:125 4.39387 
20 *61:125 *340:s4 24.8875 
21 *61:125 *61:147 3.41 
22 *61:147 *61:149 82.0893 
23 *61:149 *61:161 7.08932 
24 *61:161 *61:169 3.91682 
25 *61:169 *61:171 76.0179 
26 *61:171 *338:s4 37.6406 
27 *338:s4 *61:211 10.8385 
28 *61:211 *61:213 93.625 
29 *61:213 *61:217 6.84413 
30 *61:217 *352:s4 5.8642 
31 *61:217 *61:233 3.41 
32 *61:233 *61:235 66.3036 
33 *61:235 *61:237 3.41 
34 *61:237 *351:s4 26.2395 
35 *61:237 *61:263 45.5823 
36 *61:263 *61:265 87.5536 
37 *61:265 *61:279 10.2228 
38 *61:279 *350:s4 1.27679 
39 *61:279 *61:295 11.1518 
40 *61:295 *61:297 82.5446 
41 *61:297 *349:s4 15.6884 
42 *349:s4 *61:338 26.5315 
43 *61:338 *61:340 80.1161 
44 *61:340 *61:346 18.8125 
45 *61:346 *348:s4 6.09375 
46 *61:346 *61:372 17.2449 
47 *61:372 *61:374 87.7054 
48 *61:374 *347:s4 6.97768 
49 *61:374 *61:406 32.8077 
50 *61:406 *61:408 86.9464 
51 *61:408 *346:s4 21.9082 
52 *61:408 *61:435 13.3211 
53 *61:435 *61:437 86.9464 
54 *61:437 *61:441 4.7542 
55 *61:441 *345:s4 12.6168 
56 *61:441 *61:458 3.41 
57 *61:458 *61:460 74.0179 
58 *61:460 *337:s4 26.9062 
59 *61:161 *339:s4 3.41 
*END

*D_NET *62 0.352536
*CONN
*P io_in[4] I
*I *337:s5 I *D sky130_osu_ring_oscillator_mpr2aa_8_b0r1
*I *345:s5 I *D sky130_osu_ring_oscillator_mpr2at_8_b0r1