*SPEF "ieee 1481-1999"
*DESIGN "user_project_wrapper"
*DATE "11:11:11 Fri 11 11, 1111"
*VENDOR "OpenRCX"
*PROGRAM "Parallel Extraction"
*VERSION "1.0"
*DESIGN_FLOW "NAME_SCOPE LOCAL" "PIN_CAP NONE"
*DIVIDER /
*DELIMITER :
*BUS_DELIMITER []
*T_UNIT 1 NS
*C_UNIT 1 PF
*R_UNIT 1 OHM
*L_UNIT 1 HENRY

*NAME_MAP
*1 analog_io[0]
*2 analog_io[10]
*3 analog_io[11]
*4 analog_io[12]
*5 analog_io[13]
*6 analog_io[14]
*7 analog_io[15]
*8 analog_io[16]
*9 analog_io[17]
*10 analog_io[18]
*11 analog_io[19]
*12 analog_io[1]
*13 analog_io[20]
*14 analog_io[21]
*15 analog_io[22]
*16 analog_io[23]
*17 analog_io[24]
*18 analog_io[25]
*19 analog_io[26]
*20 analog_io[27]
*21 analog_io[28]
*22 analog_io[2]
*23 analog_io[3]
*24 analog_io[4]
*25 analog_io[5]
*26 analog_io[6]
*27 analog_io[7]
*28 analog_io[8]
*29 analog_io[9]
*30 io_in[0]
*31 io_in[10]
*32 io_in[11]
*33 io_in[12]
*34 io_in[13]
*35 io_in[14]
*36 io_in[15]
*37 io_in[16]
*38 io_in[17]
*39 io_in[18]
*40 io_in[19]
*41 io_in[1]
*42 io_in[20]
*43 io_in[21]
*44 io_in[22]
*45 io_in[23]
*46 io_in[24]
*47 io_in[25]
*48 io_in[26]
*49 io_in[27]
*50 io_in[28]
*51 io_in[29]
*52 io_in[2]
*53 io_in[30]
*54 io_in[31]
*55 io_in[32]
*56 io_in[33]
*57 io_in[34]
*58 io_in[35]
*59 io_in[36]
*60 io_in[37]
*61 io_in[3]
*62 io_in[4]
*63 io_in[5]
*64 io_in[6]
*65 io_in[7]
*66 io_in[8]
*67 io_in[9]
*68 io_oeb[0]
*69 io_oeb[10]
*70 io_oeb[11]
*71 io_oeb[12]
*72 io_oeb[13]
*73 io_oeb[14]
*74 io_oeb[15]
*75 io_oeb[16]
*76 io_oeb[17]
*77 io_oeb[18]
*78 io_oeb[19]
*79 io_oeb[1]
*80 io_oeb[20]
*81 io_oeb[21]
*82 io_oeb[22]
*83 io_oeb[23]
*84 io_oeb[24]
*85 io_oeb[25]
*86 io_oeb[26]
*87 io_oeb[27]
*88 io_oeb[28]
*89 io_oeb[29]
*90 io_oeb[2]
*91 io_oeb[30]
*92 io_oeb[31]
*93 io_oeb[32]
*94 io_oeb[33]
*95 io_oeb[34]
*96 io_oeb[35]
*97 io_oeb[36]
*98 io_oeb[37]
*99 io_oeb[3]
*100 io_oeb[4]
*101 io_oeb[5]
*102 io_oeb[6]
*103 io_oeb[7]
*104 io_oeb[8]
*105 io_oeb[9]
*106 io_out[0]
*107 io_out[10]
*108 io_out[11]
*109 io_out[12]
*110 io_out[13]
*111 io_out[14]
*112 io_out[15]
*113 io_out[16]
*114 io_out[17]
*115 io_out[18]
*116 io_out[19]
*117 io_out[1]
*118 io_out[20]
*119 io_out[21]
*120 io_out[22]
*121 io_out[23]
*122 io_out[24]
*123 io_out[25]
*124 io_out[26]
*125 io_out[27]
*126 io_out[28]
*127 io_out[29]
*128 io_out[2]
*129 io_out[30]
*130 io_out[31]
*131 io_out[32]
*132 io_out[33]
*133 io_out[34]
*134 io_out[35]
*135 io_out[36]
*136 io_out[37]
*137 io_out[3]
*138 io_out[4]
*139 io_out[5]
*140 io_out[6]
*141 io_out[7]
*142 io_out[8]
*143 io_out[9]
*146 wb_clk_i
*147 wb_rst_i
*148 wbs_ack_o
*149 wbs_adr_i[0]
*150 wbs_adr_i[10]
*151 wbs_adr_i[11]
*152 wbs_adr_i[12]
*153 wbs_adr_i[13]
*154 wbs_adr_i[14]
*155 wbs_adr_i[15]
*156 wbs_adr_i[16]
*157 wbs_adr_i[17]
*158 wbs_adr_i[18]
*159 wbs_adr_i[19]
*160 wbs_adr_i[1]
*161 wbs_adr_i[20]
*162 wbs_adr_i[21]
*163 wbs_adr_i[22]
*164 wbs_adr_i[23]
*165 wbs_adr_i[24]
*166 wbs_adr_i[25]
*167 wbs_adr_i[26]
*168 wbs_adr_i[27]
*169 wbs_adr_i[28]
*170 wbs_adr_i[29]
*171 wbs_adr_i[2]
*172 wbs_adr_i[30]
*173 wbs_adr_i[31]
*174 wbs_adr_i[3]
*175 wbs_adr_i[4]
*176 wbs_adr_i[5]
*177 wbs_adr_i[6]
*178 wbs_adr_i[7]
*179 wbs_adr_i[8]
*180 wbs_adr_i[9]
*181 wbs_cyc_i
*182 wbs_dat_i[0]
*183 wbs_dat_i[10]
*184 wbs_dat_i[11]
*185 wbs_dat_i[12]
*186 wbs_dat_i[13]
*187 wbs_dat_i[14]
*188 wbs_dat_i[15]
*189 wbs_dat_i[16]
*190 wbs_dat_i[17]
*191 wbs_dat_i[18]
*192 wbs_dat_i[19]
*193 wbs_dat_i[1]
*194 wbs_dat_i[20]
*195 wbs_dat_i[21]
*196 wbs_dat_i[22]
*197 wbs_dat_i[23]
*198 wbs_dat_i[24]
*199 wbs_dat_i[25]
*200 wbs_dat_i[26]
*201 wbs_dat_i[27]
*202 wbs_dat_i[28]
*203 wbs_dat_i[29]
*204 wbs_dat_i[2]
*205 wbs_dat_i[30]
*206 wbs_dat_i[31]
*207 wbs_dat_i[3]
*208 wbs_dat_i[4]
*209 wbs_dat_i[5]
*210 wbs_dat_i[6]
*211 wbs_dat_i[7]
*212 wbs_dat_i[8]
*213 wbs_dat_i[9]
*214 wbs_dat_o[0]
*215 wbs_dat_o[10]
*216 wbs_dat_o[11]
*217 wbs_dat_o[12]
*218 wbs_dat_o[13]
*219 wbs_dat_o[14]
*220 wbs_dat_o[15]
*221 wbs_dat_o[16]
*222 wbs_dat_o[17]
*223 wbs_dat_o[18]
*224 wbs_dat_o[19]
*225 wbs_dat_o[1]
*226 wbs_dat_o[20]
*227 wbs_dat_o[21]
*228 wbs_dat_o[22]
*229 wbs_dat_o[23]
*230 wbs_dat_o[24]
*231 wbs_dat_o[25]
*232 wbs_dat_o[26]
*233 wbs_dat_o[27]
*234 wbs_dat_o[28]
*235 wbs_dat_o[29]
*236 wbs_dat_o[2]
*237 wbs_dat_o[30]
*238 wbs_dat_o[31]
*239 wbs_dat_o[3]
*240 wbs_dat_o[4]
*241 wbs_dat_o[5]
*242 wbs_dat_o[6]
*243 wbs_dat_o[7]
*244 wbs_dat_o[8]
*245 wbs_dat_o[9]
*246 wbs_sel_i[0]
*247 wbs_sel_i[1]
*248 wbs_sel_i[2]
*249 wbs_sel_i[3]
*250 wbs_stb_i
*251 wbs_we_i
*252 x1\[0\]
*253 x1\[10\]
*254 x1\[11\]
*255 x1\[12\]
*256 x1\[13\]
*257 x1\[14\]
*258 x1\[15\]
*259 x1\[1\]
*260 x1\[2\]
*261 x1\[3\]
*262 x1\[4\]
*263 x1\[5\]
*264 x1\[6\]
*265 x1\[7\]
*266 x1\[8\]
*267 x1\[9\]
*268 x2\[0\]
*269 x2\[10\]
*270 x2\[11\]
*271 x2\[12\]
*272 x2\[13\]
*273 x2\[14\]
*274 x2\[15\]
*275 x2\[1\]
*276 x2\[2\]
*277 x2\[3\]
*278 x2\[4\]
*279 x2\[5\]
*280 x2\[6\]
*281 x2\[7\]
*282 x2\[8\]
*283 x2\[9\]
*284 x3\[0\]
*285 x3\[10\]
*286 x3\[11\]
*287 x3\[12\]
*288 x3\[13\]
*289 x3\[14\]
*290 x3\[15\]
*291 x3\[1\]
*292 x3\[2\]
*293 x3\[3\]
*294 x3\[4\]
*295 x3\[5\]
*296 x3\[6\]
*297 x3\[7\]
*298 x3\[8\]
*299 x3\[9\]
*300 x4\[0\]
*301 x4\[10\]
*302 x4\[11\]
*303 x4\[12\]
*304 x4\[13\]
*305 x4\[14\]
*306 x4\[15\]
*307 x4\[1\]
*308 x4\[2\]
*309 x4\[3\]
*310 x4\[4\]
*311 x4\[5\]
*312 x4\[6\]
*313 x4\[7\]
*314 x4\[8\]
*315 x4\[9\]
*316 x5\[0\]
*317 x5\[10\]
*318 x5\[11\]
*319 x5\[12\]
*320 x5\[13\]
*321 x5\[14\]
*322 x5\[15\]
*323 x5\[1\]
*324 x5\[2\]
*325 x5\[3\]
*326 x5\[4\]
*327 x5\[5\]
*328 x5\[6\]
*329 x5\[7\]
*330 x5\[8\]
*331 x5\[9\]
*332 mprj1
*333 mprj2
*334 mprj3
*335 mprj4
*336 mprj5
*337 ro1
*338 ro11
*339 ro12
*340 ro13
*341 ro14
*342 ro15
*343 ro3
*344 ro4
*345 ro5
*346 ro6
*347 ro7

*PORTS
analog_io[0] I
analog_io[10] I
analog_io[11] I
analog_io[12] I
analog_io[13] I
analog_io[14] I
analog_io[15] I
analog_io[16] I
analog_io[17] I
analog_io[18] I
analog_io[19] I
analog_io[1] I
analog_io[20] I
analog_io[21] I
analog_io[22] I
analog_io[23] I
analog_io[24] I
analog_io[25] I
analog_io[26] I
analog_io[27] I
analog_io[28] I
analog_io[2] I
analog_io[3] I
analog_io[4] I
analog_io[5] I
analog_io[6] I
analog_io[7] I
analog_io[8] I
analog_io[9] I
io_in[0] I
io_in[10] I
io_in[11] I
io_in[12] I
io_in[13] I
io_in[14] I
io_in[15] I
io_in[16] I
io_in[17] I
io_in[18] I
io_in[19] I
io_in[1] I
io_in[20] I
io_in[21] I
io_in[22] I
io_in[23] I
io_in[24] I
io_in[25] I
io_in[26] I
io_in[27] I
io_in[28] I
io_in[29] I
io_in[2] I
io_in[30] I
io_in[31] I
io_in[32] I
io_in[33] I
io_in[34] I
io_in[35] I
io_in[36] I
io_in[37] I
io_in[3] I
io_in[4] I
io_in[5] I
io_in[6] I
io_in[7] I
io_in[8] I
io_in[9] I
io_oeb[0] O
io_oeb[10] O
io_oeb[11] O
io_oeb[12] O
io_oeb[13] O
io_oeb[14] O
io_oeb[15] O
io_oeb[16] O
io_oeb[17] O
io_oeb[18] O
io_oeb[19] O
io_oeb[1] O
io_oeb[20] O
io_oeb[21] O
io_oeb[22] O
io_oeb[23] O
io_oeb[24] O
io_oeb[25] O
io_oeb[26] O
io_oeb[27] O
io_oeb[28] O
io_oeb[29] O
io_oeb[2] O
io_oeb[30] O
io_oeb[31] O
io_oeb[32] O
io_oeb[33] O
io_oeb[34] O
io_oeb[35] O
io_oeb[36] O
io_oeb[37] O
io_oeb[3] O
io_oeb[4] O
io_oeb[5] O
io_oeb[6] O
io_oeb[7] O
io_oeb[8] O
io_oeb[9] O
io_out[0] O
io_out[10] O
io_out[11] O
io_out[12] O
io_out[13] O
io_out[14] O
io_out[15] O
io_out[16] O
io_out[17] O
io_out[18] O
io_out[19] O
io_out[1] O
io_out[20] O
io_out[21] O
io_out[22] O
io_out[23] O
io_out[24] O
io_out[25] O
io_out[26] O
io_out[27] O
io_out[28] O
io_out[29] O
io_out[2] O
io_out[30] O
io_out[31] O
io_out[32] O
io_out[33] O
io_out[34] O
io_out[35] O
io_out[36] O
io_out[37] O
io_out[3] O
io_out[4] O
io_out[5] O
io_out[6] O
io_out[7] O
io_out[8] O
io_out[9] O
wb_clk_i I
wb_rst_i I
wbs_ack_o O
wbs_adr_i[0] I
wbs_adr_i[10] I
wbs_adr_i[11] I
wbs_adr_i[12] I
wbs_adr_i[13] I
wbs_adr_i[14] I
wbs_adr_i[15] I
wbs_adr_i[16] I
wbs_adr_i[17] I
wbs_adr_i[18] I
wbs_adr_i[19] I
wbs_adr_i[1] I
wbs_adr_i[20] I
wbs_adr_i[21] I
wbs_adr_i[22] I
wbs_adr_i[23] I
wbs_adr_i[24] I
wbs_adr_i[25] I
wbs_adr_i[26] I
wbs_adr_i[27] I
wbs_adr_i[28] I
wbs_adr_i[29] I
wbs_adr_i[2] I
wbs_adr_i[30] I
wbs_adr_i[31] I
wbs_adr_i[3] I
wbs_adr_i[4] I
wbs_adr_i[5] I
wbs_adr_i[6] I
wbs_adr_i[7] I
wbs_adr_i[8] I
wbs_adr_i[9] I
wbs_cyc_i I
wbs_dat_i[0] I
wbs_dat_i[10] I
wbs_dat_i[11] I
wbs_dat_i[12] I
wbs_dat_i[13] I
wbs_dat_i[14] I
wbs_dat_i[15] I
wbs_dat_i[16] I
wbs_dat_i[17] I
wbs_dat_i[18] I
wbs_dat_i[19] I
wbs_dat_i[1] I
wbs_dat_i[20] I
wbs_dat_i[21] I
wbs_dat_i[22] I
wbs_dat_i[23] I
wbs_dat_i[24] I
wbs_dat_i[25] I
wbs_dat_i[26] I
wbs_dat_i[27] I
wbs_dat_i[28] I
wbs_dat_i[29] I
wbs_dat_i[2] I
wbs_dat_i[30] I
wbs_dat_i[31] I
wbs_dat_i[3] I
wbs_dat_i[4] I
wbs_dat_i[5] I
wbs_dat_i[6] I
wbs_dat_i[7] I
wbs_dat_i[8] I
wbs_dat_i[9] I
wbs_dat_o[0] O
wbs_dat_o[10] O
wbs_dat_o[11] O
wbs_dat_o[12] O
wbs_dat_o[13] O
wbs_dat_o[14] O
wbs_dat_o[15] O
wbs_dat_o[16] O
wbs_dat_o[17] O
wbs_dat_o[18] O
wbs_dat_o[19] O
wbs_dat_o[1] O
wbs_dat_o[20] O
wbs_dat_o[21] O
wbs_dat_o[22] O
wbs_dat_o[23] O
wbs_dat_o[24] O
wbs_dat_o[25] O
wbs_dat_o[26] O
wbs_dat_o[27] O
wbs_dat_o[28] O
wbs_dat_o[29] O
wbs_dat_o[2] O
wbs_dat_o[30] O
wbs_dat_o[31] O
wbs_dat_o[3] O
wbs_dat_o[4] O
wbs_dat_o[5] O
wbs_dat_o[6] O
wbs_dat_o[7] O
wbs_dat_o[8] O
wbs_dat_o[9] O
wbs_sel_i[0] I
wbs_sel_i[1] I
wbs_sel_i[2] I
wbs_sel_i[3] I
wbs_stb_i I
wbs_we_i I

*D_NET *30 0.384962
*CONN
*P io_in[0] I
*I *337:s1 I *D sky130_osu_ring_oscillator_mpr2aa_8_b0r1
*I *343:s1 I *D sky130_osu_ring_oscillator_mpr2ca_8_b0r1
*I *344:s1 I *D sky130_osu_ring_oscillator_mpr2ct_8_b0r1
*I *345:s1 I *D sky130_osu_ring_oscillator_mpr2ea_8_b0r1
*I *346:s1 I *D sky130_osu_ring_oscillator_mpr2et_8_b0r1
*I *347:s1 I *D sky130_osu_ring_oscillator_mpr2xa_8_b0r1
*I *338:s1 I *D sky130_osu_ring_oscillator_mpr2ca_8_b0r2
*I *339:s1 I *D sky130_osu_ring_oscillator_mpr2ct_8_b0r2
*I *340:s1 I *D sky130_osu_ring_oscillator_mpr2ea_8_b0r2
*I *341:s1 I *D sky130_osu_ring_oscillator_mpr2et_8_b0r2
*I *342:s1 I *D sky130_osu_ring_oscillator_mpr2xa_8_b0r2
*CAP
1 io_in[0] 0.0724819
2 *337:s1 0
3 *343:s1 0.000223215
4 *344:s1 0.00018924
5 *345:s1 0.000254232
6 *346:s1 0.000155905
7 *347:s1 0.000253823
8 *338:s1 0.000165731
9 *339:s1 4.67136e-05
10 *340:s1 0.000259811
11 *341:s1 0.000149401
12 *342:s1 0.000259295
13 *30:196 0.00996643
14 *30:172 0.0149945
15 *30:158 0.0104279
16 *30:134 0.0100343
17 *30:120 0.010132
18 *30:96 0.0247109
19 *30:82 0.0236482
20 *30:67 0.00994755
21 *30:43 0.0101751
22 *30:27 0.010078
23 *30:13 0.00589884
24 *30:9 0.0490964
25 *30:7 0.0487157
26 *30:5 0.0724819
27 *342:s1 *257:12 0
28 *345:s1 *262:8 0
29 *347:s1 *264:12 0
30 *30:43 *255:8 0.000215015
31 *30:158 *260:20 0
32 *30:172 *260:20 0
*RES
1 io_in[0] *30:5 268.447 
2 *30:5 *30:7 8 
3 *30:7 *30:9 189.676 
4 *30:9 *30:13 1.28053 
5 *30:13 *342:s1 17.4768 
6 *30:13 *30:27 19.6037 
7 *30:27 *341:s1 17.813 
8 *30:27 *30:43 18.7152 
9 *30:43 *340:s1 18.1751 
10 *30:43 *30:67 19.7531 
11 *30:67 *339:s1 16.0989 
12 *30:67 *30:82 18.7451 
13 *30:82 *338:s1 18.0957 
14 *30:82 *30:96 73.5504 
15 *30:96 *347:s1 20.915 
16 *30:96 *30:120 20.9104 
17 *30:120 *346:s1 17.6659 
18 *30:120 *30:134 17.4459 
19 *30:134 *345:s1 20.8684 
20 *30:134 *30:158 20.4027 
21 *30:158 *344:s1 18.2075 
22 *30:158 *30:172 18.5883 
23 *30:172 *343:s1 19.8793 
24 *30:172 *30:196 45.6824 
25 *30:196 *337:s1 8 
*END

*D_NET *41 0.423256
*CONN
*P io_in[1] I
*I *344:s2 I *D sky130_osu_ring_oscillator_mpr2ct_8_b0r1
*I *337:s2 I *D sky130_osu_ring_oscillator_mpr2aa_8_b0r1
*I *343:s2 I *D sky130_osu_ring_oscillator_mpr2ca_8_b0r1
*I *345:s2 I *D sky130_osu_ring_oscillator_mpr2ea_8_b0r1
*I *346:s2 I *D sky130_osu_ring_oscillator_mpr2et_8_b0r1
*I *347:s2 I *D sky130_osu_ring_oscillator_mpr2xa_8_b0r1
*I *338:s2 I *D sky130_osu_ring_oscillator_mpr2ca_8_b0r2
*I *339:s2 I *D sky130_osu_ring_oscillator_mpr2ct_8_b0r2
*I *340:s2 I *D sky130_osu_ring_oscillator_mpr2ea_8_b0r2
*I *341:s2 I *D sky130_osu_ring_oscillator_mpr2et_8_b0r2
*I *342:s2 I *D sky130_osu_ring_oscillator_mpr2xa_8_b0r2
*CAP
1 io_in[1] 0.0719812
2 *344:s2 7.37892e-05
3 *337:s2 0
4 *343:s2 0.000213384
5 *345:s2 0.000549917
6 *346:s2 0.0127781
7 *347:s2 0.000315259
8 *338:s2 0.000110336
9 *339:s2 0.000356963
10 *340:s2 0.000526838
11 *341:s2 0.0127932
12 *342:s2 0.00019217
13 *41:195 0.0110263
14 *41:171 0.0173078
15 *41:165 0.0127438
16 *41:143 0.013169
17 *41:101 0.0313879
18 *41:99 0.0243118
19 *41:87 0.00637818
20 *41:72 0.012725
21 *41:50 0.012678
22 *41:9 0.0576834
23 *41:7 0.050749
24 *41:5 0.0719812
25 *347:s2 *280:8 0
26 *41:72 *270:12 0.000525172
27 *41:87 *52:86 0
28 *41:165 *277:12 0.000698642
29 *41:171 *252:14 0
30 *41:195 *252:14 0
*RES
1 io_in[1] *41:5 266.386 
2 *41:5 *41:7 8 
3 *41:7 *41:9 153.265 
4 *41:9 *342:s2 17.2192 
5 *41:9 *341:s2 39.7038 
6 *341:s2 *41:50 36.5799 
7 *41:50 *340:s2 36.192 
8 *41:50 *41:72 18.7152 
9 *41:72 *339:s2 16.756 
10 *41:72 *41:87 27.5477 
11 *41:87 *338:s2 9.08286 
12 *41:87 *41:99 8 
13 *41:99 *41:101 73.5504 
14 *41:101 *347:s2 21.7259 
15 *41:101 *346:s2 40.3946 
16 *346:s2 *41:143 37.1884 
17 *41:143 *345:s2 18.8042 
18 *41:143 *41:165 27.6317 
19 *41:165 *41:171 26.1795 
20 *41:171 *343:s2 18.0128 
21 *41:171 *41:195 45.8653 
22 *41:195 *337:s2 8 
23 *41:165 *344:s2 9.6675 
*END

*D_NET *52 0.361113
*CONN
*P io_in[2] I
*I *337:s3 I *D sky130_osu_ring_oscillator_mpr2aa_8_b0r1
*I *343:s3 I *D sky130_osu_ring_oscillator_mpr2ca_8_b0r1
*I *344:s3 I *D sky130_osu_ring_oscillator_mpr2ct_8_b0r1
*I *345:s3 I *D sky130_osu_ring_oscillator_mpr2ea_8_b0r1
*I *346:s3 I *D sky130_osu_ring_oscillator_mpr2et_8_b0r1
*I *347:s3 I *D sky130_osu_ring_oscillator_mpr2xa_8_b0r1
*I *338:s3 I *D sky130_osu_ring_oscillator_mpr2ca_8_b0r2
*I *339:s3 I *D sky130_osu_ring_oscillator_mpr2ct_8_b0r2
*I *340:s3 I *D sky130_osu_ring_oscillator_mpr2ea_8_b0r2
*I *341:s3 I *D sky130_osu_ring_oscillator_mpr2et_8_b0r2
*I *342:s3 I *D sky130_osu_ring_oscillator_mpr2xa_8_b0r2
*CAP
1 io_in[2] 0.0704907
2 *337:s3 0
3 *343:s3 0.00021177
4 *344:s3 0.000164204
5 *345:s3 0.000233816
6 *346:s3 5.60247e-05
7 *347:s3 0.000210974
8 *338:s3 0.000130848
9 *339:s3 2.91243e-05
10 *340:s3 0.000191412
11 *341:s3 8.31925e-05
12 *342:s3 0.000573827
13 *52:200 0.0104032
14 *52:179 0.0157681
15 *52:165 0.0112683
16 *52:141 0.0113694
17 *52:126 0.0111518
18 *52:104 0.0236667
19 *52:102 0.0189242
20 *52:86 0.00650874
21 *52:61 0.0103341
22 *52:41 0.0119425
23 *52:22 0.0120058
24 *52:9 0.0403322
25 *52:7 0.0342801
26 *52:5 0.0704907
27 *345:s3 *294:8 0
28 *52:22 *288:12 0.000291206
29 *41:87 *52:86 0
*RES
1 io_in[2] *52:5 261.921 
2 *52:5 *52:7 8 
3 *52:7 *52:9 116.708 
4 *52:9 *342:s3 18.1308 
5 *52:9 *52:22 18.2075 
6 *52:22 *341:s3 16.2268 
7 *52:22 *52:41 29.1456 
8 *52:41 *340:s3 11.4961 
9 *52:41 *52:61 34.7152 
10 *52:61 *339:s3 8.09893 
11 *52:61 *52:86 28.1824 
12 *52:86 *338:s3 17.7923 
13 *52:86 *52:102 5.59253 
14 *52:102 *52:104 68.4581 
15 *52:104 *347:s3 19.6929 
16 *52:104 *52:126 20.9403 
17 *52:126 *346:s3 31.2543 
18 *52:126 *52:141 17.6997 
19 *52:141 *345:s3 20.4023 
20 *52:141 *52:165 19.8875 
21 *52:165 *344:s3 18.0594 
22 *52:165 *52:179 18.8421 
23 *52:179 *343:s3 16.5525 
24 *52:179 *52:200 45.3791 
25 *52:200 *337:s3 8 
*END

*D_NET *61 0.416901
*CONN
*P io_in[3] I
*I *338:s4 I *D sky130_osu_ring_oscillator_mpr2ca_8_b0r2
*I *337:s4 I *D sky130_osu_ring_oscillator_mpr2aa_8_b0r1
*I *343:s4 I *D sky130_osu_ring_oscillator_mpr2ca_8_b0r1
*I *344:s4 I *D sky130_osu_ring_oscillator_mpr2ct_8_b0r1
*I *345:s4 I *D sky130_osu_ring_oscillator_mpr2ea_8_b0r1
*I *346:s4 I *D sky130_osu_ring_oscillator_mpr2et_8_b0r1
*I *347:s4 I *D sky130_osu_ring_oscillator_mpr2xa_8_b0r1
*I *339:s4 I *D sky130_osu_ring_oscillator_mpr2ct_8_b0r2
*I *340:s4 I *D sky130_osu_ring_oscillator_mpr2ea_8_b0r2
*I *341:s4 I *D sky130_osu_ring_oscillator_mpr2et_8_b0r2
*I *342:s4 I *D sky130_osu_ring_oscillator_mpr2xa_8_b0r2
*CAP
1 io_in[3] 0.000813542
2 *338:s4 7.26952e-05
3 *337:s4 0
4 *343:s4 0.000212986
5 *344:s4 0.000261769
6 *345:s4 0.000202952
7 *346:s4 0.000228571
8 *347:s4 0.000304184
9 *339:s4 4.67136e-05
10 *340:s4 0.000107513
11 *341:s4 4.09846e-05
12 *342:s4 0.00122655
13 *61:196 0.00985064
14 *61:175 0.0150299
15 *61:153 0.0104337
16 *61:135 0.00985194
17 *61:120 0.00871865
18 *61:92 0.0206707
19 *61:90 0.0165167
20 *61:86 0.00498271
21 *61:69 0.00990057
22 *61:58 0.010478
23 *61:39 0.0096901
24 *61:13 0.048675
25 *61:11 0.0430289
26 *61:9 0.0162768
27 *61:7 0.0170903
28 *345:s4 *310:12 0
29 *347:s4 *312:11 0
30 *61:9 *62:9 0.0102382
31 *61:13 *342:s5 0.00142358
32 *61:13 *62:13 0.138599
33 *61:58 *303:12 0.000205646
34 *61:86 *62:100 0
35 *61:92 *295:18 0.00586727
36 *61:92 *309:14 0
37 *61:120 *295:18 0.00585386
38 *61:120 *309:14 0
39 *61:135 *309:14 0
40 *61:153 *300:14 0
41 *61:153 *309:14 0
42 *61:175 *300:14 0
43 *61:196 *300:14 0
*RES
1 io_in[3] *61:7 11.0763 
2 *61:7 *61:9 451.592 
3 *61:9 *61:11 8 
4 *61:11 *61:13 255.638 
5 *61:13 *342:s4 35.7069 
6 *61:13 *61:39 24.3035 
7 *61:39 *341:s4 16.0868 
8 *61:39 *61:58 20.6939 
9 *61:58 *340:s4 16.3201 
10 *61:58 *61:69 19.2229 
11 *61:69 *339:s4 16.0989 
12 *61:69 *61:86 26.9989 
13 *61:86 *61:90 8.5712 
14 *61:90 *61:92 73.2965 
15 *61:92 *347:s4 21.9507 
16 *61:92 *61:120 20.4699 
17 *61:120 *346:s4 32.4738 
18 *61:120 *61:135 17.8267 
19 *61:135 *345:s4 19.5479 
20 *61:135 *61:153 19.2229 
21 *61:153 *344:s4 20.341 
22 *61:153 *61:175 19.2229 
23 *61:175 *343:s4 16.5572 
24 *61:175 *61:196 45.5779 
25 *61:196 *337:s4 8 
26 *61:86 *338:s4 8.18667 
*END

*D_NET *62 0.400959
*CONN
*P io_in[4] I
*I *339:s5 I *D sky130_osu_ring_oscillator_mpr2ct_8_b0r2
*I *337:s5 I *D sky130_osu_ring_oscillator_mpr2aa_8_b0r1
*I *343:s5 I *D sky130_osu_ring_oscillator_mpr2ca_8_b0r1
*I *344:s5 I *D sky130_osu_ring_oscillator_mpr2ct_8_b0r1
*I *345:s5 I *D sky130_osu_ring_oscillator_mpr2ea_8_b0r1
*I *346:s5 I *D sky130_osu_ring_oscillator_mpr2et_8_b0r1
*I *347:s5 I *D sky130_osu_ring_oscillator_mpr2xa_8_b0r1
*I *338:s5 I *D sky130_osu_ring_oscillator_mpr2ca_8_b0r2
*I *340:s5 I *D sky130_osu_ring_oscillator_mpr2ea_8_b0r2
*I *341:s5 I *D sky130_osu_ring_oscillator_mpr2et_8_b0r2
*I *342:s5 I *D sky130_osu_ring_oscillator_mpr2xa_8_b0r2
*CAP
1 io_in[4] 0.000768792
2 *339:s5 3.67574e-05
3 *337:s5 7.17093e-05
4 *343:s5 0.000223589
5 *344:s5 0.000182291
6 *345:s5 0.000255139
7 *346:s5 0.000429945
8 *347:s5 0.000244094
9 *338:s5 0.000128806
10 *340:s5 0.000256518
11 *341:s5 0.000139333
12 *342:s5 0.00107602
13 *62:235 0.00997436
14 *62:207 0.0151003
15 *62:189 0.0104169
16 *62:169 0.010103
17 *62:146 0.00894782
18 *62:118 0.0152135
19 *62:116 0.0122996
20 *62:100 0.0064444
21 *62:88 0.010127
22 *62:68 0.00555634
23 *62:62 0.00446197
24 *62:60 0.00507058
25 *62:43 0.00540139
26 *62:13 0.0479735
27 *62:11 0.0425084
28 *62:9 0.00730272
29 *62:7 0.00807152
30 *62:9 *63:9 0
31 *62:116 *311:14 0.000124608
32 *62:118 *300:14 0.00341517
33 *62:118 *309:14 0
34 *62:118 *311:14 0.011962
35 *62:146 *300:14 0.00018776
36 *62:146 *311:12 0.000370716
37 *62:146 *311:14 0.00585183
38 *62:169 *300:14 0
39 *62:207 *300:14 0
40 *62:235 *300:14 0
41 *61:9 *62:9 0.0102382
42 *61:13 *342:s5 0.00142358
43 *61:13 *62:13 0.138599
44 *61:86 *62:100 0
*RES
1 io_in[4] *62:7 10.9045 
2 *62:7 *62:9 245.941 
3 *62:9 *62:11 8 
4 *62:11 *62:13 252.719 
5 *62:13 *342:s5 37.7802 
6 *62:13 *62:43 24.1765 
7 *62:43 *341:s5 16.4424 
8 *62:43 *62:60 19.2088 
9 *62:60 *62:62 94.5193 
10 *62:62 *62:68 9.79786 
11 *62:68 *340:s5 12.915 
12 *62:68 *62:88 34.7152 
13 *62:88 *62:100 28.1861 
14 *62:100 *338:s5 17.7457 
15 *62:100 *62:116 5.24907 
16 *62:116 *62:118 68.4581 
17 *62:118 *347:s5 34.9518 
18 *62:118 *62:146 20.6416 
19 *62:146 *346:s5 33.2466 
20 *62:146 *62:169 18.5659 
21 *62:169 *345:s5 20.8891 
22 *62:169 *62:189 19.4768 
23 *62:189 *344:s5 18.4737 
24 *62:189 *62:207 19.3424 
25 *62:207 *343:s5 19.9777 
26 *62:207 *62:235 45.5452 
27 *62:235 *337:s5 9.48107 
28 *62:88 *339:s5 8.09893 
*END

*D_NET *63 0.286377
*CONN
*P io_in[5] I
*I *342:start I *D sky130_osu_ring_oscillator_mpr2xa_8_b0r2
*I *337:start I *D sky130_osu_ring_oscillator_mpr2aa_8_b0r1
*I *343:start I *D sky130_osu_ring_oscillator_mpr2ca_8_b0r1
*I *344:start I *D sky130_osu_ring_oscillator_mpr2ct_8_b0r1
*I *345:start I *D sky130_osu_ring_oscillator_mpr2ea_8_b0r1
*I *346:start I *D sky130_osu_ring_oscillator_mpr2et_8_b0r1
*I *347:start I *D sky130_osu_ring_oscillator_mpr2xa_8_b0r1
*I *338:start I *D sky130_osu_ring_oscillator_mpr2ca_8_b0r2
*I *339:start I *D sky130_osu_ring_oscillator_mpr2ct_8_b0r2
*I *340:start I *D sky130_osu_ring_oscillator_mpr2ea_8_b0r2
*I *341:start I *D sky130_osu_ring_oscillator_mpr2et_8_b0r2
*CAP
1 io_in[5] 0.0020698
2 *342:start 4.54969e-05
3 *337:start 0.00065159
4 *343:start 0.000575762
5 *344:start 0.000579186
6 *345:start 0.000550051
7 *346:start 0.000590438
8 *347:start 0.000662842
9 *338:start 0.00066844
10 *339:start 0.000635446
11 *340:start 0.000637403
12 *341:start 0.000639115
13 *63:143 0.0096291
14 *63:130 0.0140917
15 *63:117 0.00964545
16 *63:105 0.00962706
17 *63:93 0.00979324
18 *63:79 0.023311
19 *63:61 0.0232186
20 *63:49 0.00971239
21 *63:37 0.00971434
22 *63:25 0.00973148
23 *63:23 0.00510837
24 *63:19 0.000747494
25 *63:13 0.0709007
26 *63:11 0.0707703
27 *63:9 0.0020698
28 *62:9 *63:9 0
*RES
1 io_in[5] *63:9 42.4891 
2 *63:9 *63:11 15 
3 *63:11 *63:13 1496.61 
4 *63:13 *63:19 3.37643 
5 *63:19 *63:23 27.0557 
6 *63:23 *63:25 104.027 
7 *63:25 *341:start 28.3245 
8 *63:25 *63:37 103.675 
9 *63:37 *340:start 28.2882 
10 *63:37 *63:49 103.675 
11 *63:49 *339:start 28.2468 
12 *63:49 *63:61 103.675 
13 *63:61 *338:start 30.0696 
14 *63:61 *63:79 411.8 
15 *63:79 *347:start 28.8268 
16 *63:79 *63:93 105.436 
17 *63:93 *346:start 27.2939 
18 *63:93 *63:105 103.675 
19 *63:105 *345:start 27.2525 
20 *63:105 *63:117 103.675 
21 *63:117 *344:start 27.0557 
22 *63:117 *63:130 103.675 
23 *63:130 *343:start 27.0557 
24 *63:130 *63:143 205.796 
25 *63:143 *337:start 28.5886 
26 *63:19 *342:start 0.963214 
*END

*D_NET *64 0.113397
*CONN
*P io_in[6] I
*I *335:select[0] I *D mux16x1_project
*I *334:select[0] I *D mux16x1_project
*I *333:select[0] I *D mux16x1_project
*I *332:select[0] I *D mux16x1_project
*I *336:select[0] I *D mux16x1_project
*CAP
1 io_in[6] 0.000801604
2 *335:select[0] 8.66535e-05
3 *334:select[0] 8.66535e-05
4 *333:select[0] 8.66535e-05
5 *332:select[0] 0.000128392
6 *336:select[0] 0.000479636
7 *64:59 0.00428045
8 *64:57 0.00420015
9 *64:55 0.00493925
10 *64:53 0.00669553
11 *64:49 0.00390243
12 *64:47 0.0022328
13 *64:45 0.00524412
14 *64:43 0.00668925
15 *64:39 0.00360008
16 *64:37 0.0022416
17 *64:35 0.00553186
18 *64:33 0.00668068
19 *64:29 0.00768635
20 *64:27 0.00754347
21 *64:15 0.00144702
22 *64:13 0.0148993
23 *64:11 0.0148993
24 *64:9 0.004106
25 *64:7 0.00490761
26 *64:13 *336:select[1] 0
27 *64:13 *66:21 0
*RES
1 io_in[6] *64:7 11.0763 
2 *64:7 *64:9 93.815 
3 *64:9 *64:11 8 
4 *64:11 *64:13 55.5259 
5 *64:13 *64:15 8 
6 *64:15 *336:select[0] 11.2789 
7 *64:15 *64:27 22.3921 
8 *64:27 *64:29 150.22 
9 *64:29 *64:33 25.81 
10 *64:33 *64:35 125.653 
11 *64:35 *64:37 1.09786 
12 *64:37 *64:39 50.17 
13 *64:39 *64:43 32.77 
14 *64:43 *64:45 118.693 
15 *64:45 *64:47 1.09786 
16 *64:47 *64:49 50.17 
17 *64:49 *64:53 39.73 
18 *64:53 *64:55 111.733 
19 *64:55 *64:57 1.09786 
20 *64:57 *64:59 95.6171 
21 *64:59 *332:select[0] 2.93107 
22 *64:53 *333:select[0] 1.97821 
23 *64:43 *334:select[0] 1.97821 
24 *64:33 *335:select[0] 1.97821 
*END

*D_NET *65 0.110856
*CONN
*P io_in[7] I
*I *336:select[1] I *D mux16x1_project
*I *335:select[1] I *D mux16x1_project
*I *332:select[1] I *D mux16x1_project
*I *333:select[1] I *D mux16x1_project
*I *334:select[1] I *D mux16x1_project
*CAP
1 io_in[7] 0.00162898
2 *336:select[1] 0.000806109
3 *335:select[1] 0.000102576
4 *332:select[1] 0
5 *333:select[1] 0.00049526
6 *334:select[1] 7.1637e-05
7 *65:67 0.00988911
8 *65:50 0.00913053
9 *65:32 0.0198621
10 *65:21 0.0198702
11 *65:15 0.00986091
12 *65:13 0.0233944
13 *65:11 0.0157444
14 *65:13 *335:select[2] 0
15 *64:13 *336:select[1] 0
*RES
1 io_in[7] *65:11 37.6186 
2 *65:11 *65:13 52.22 
3 *65:13 *65:15 0.614133 
4 *65:15 *65:21 44.6707 
5 *65:21 *334:select[1] 16.1848 
6 *65:21 *65:32 39.6592 
7 *65:32 *333:select[1] 25.413 
8 *65:32 *65:50 43.2744 
9 *65:50 *332:select[1] 8 
10 *65:15 *335:select[1] 10.1854 
11 *65:13 *65:67 43.2165 
12 *65:67 *336:select[1] 30.7723 
*END

*D_NET *66 0.108932
*CONN
*P io_in[8] I
*I *332:select[2] I *D mux16x1_project
*I *333:select[2] I *D mux16x1_project
*I *334:select[2] I *D mux16x1_project
*I *335:select[2] I *D mux16x1_project
*I *336:select[2] I *D mux16x1_project
*CAP
1 io_in[8] 0.0141472
2 *332:select[2] 0
3 *333:select[2] 0.000495268
4 *334:select[2] 7.1678e-05
5 *335:select[2] 0.00049547
6 *336:select[2] 0.000622095
7 *66:78 0.00913057
8 *66:60 0.0176418
9 *66:21 0.0103727
10 *66:15 0.0192871
11 *66:13 0.0118088
12 *66:7 0.0107119
13 *66:5 0.0141472
14 *64:13 *66:21 0
15 *65:13 *335:select[2] 0
*RES
1 io_in[8] *66:5 52.7501 
2 *66:5 *66:7 8 
3 *66:7 *66:13 10.7557 
4 *66:13 *66:15 35.2165 
5 *66:15 *66:21 44.6707 
6 *66:21 *336:select[2] 22.1582 
7 *66:15 *335:select[2] 25.413 
8 *66:13 *334:select[2] 16.1848 
9 *66:7 *66:60 30.6693 
10 *66:60 *333:select[2] 25.413 
11 *66:60 *66:78 43.2744 
12 *66:78 *332:select[2] 8 
*END

*D_NET *67 0.101223
*CONN
*P io_in[9] I
*I *332:select[3] I *D mux16x1_project
*I *336:select[3] I *D mux16x1_project
*I *335:select[3] I *D mux16x1_project
*I *334:select[3] I *D mux16x1_project
*I *333:select[3] I *D mux16x1_project
*CAP
1 io_in[9] 0.0135725
2 *332:select[3] 0.000149262
3 *336:select[3] 0.00146055
4 *335:select[3] 8.66535e-05
5 *334:select[3] 0.000107523
6 *333:select[3] 0.000107523
7 *67:65 0.00386107
8 *67:53 0.00918596
9 *67:51 0.00779437
10 *67:43 0.00124408
11 *67:39 0.00766234
12 *67:37 0.00798155
13 *67:27 0.00237786
14 *67:23 0.00744017
15 *67:21 0.00829317
16 *67:11 0.00187127
17 *67:9 0.00539524
18 *67:7 0.00905896
19 *67:5 0.0135725
*RES
1 io_in[9] *67:5 50.6464 
2 *67:5 *67:7 8 
3 *67:7 *67:9 121.986 
4 *67:9 *67:11 1.09786 
5 *67:11 *333:select[3] 2.45464 
6 *67:11 *67:21 39.73 
7 *67:21 *67:23 150.22 
8 *67:23 *67:27 19.7407 
9 *67:27 *334:select[3] 2.45464 
10 *67:27 *67:37 32.77 
11 *67:37 *67:39 150.22 
12 *67:39 *67:43 25.0643 
13 *67:43 *335:select[3] 1.97821 
14 *67:43 *67:51 1.57429 
15 *67:51 *67:53 176.9 
16 *67:53 *336:select[3] 34.0025 
17 *67:7 *67:65 85.3636 
18 *67:65 *332:select[3] 3.4075 
*END

*D_NET *106 0.218436
*CONN
*P io_out[0] O
*I *332:y O *D mux16x1_project
*I *333:y O *D mux16x1_project
*I *334:y O *D mux16x1_project
*I *335:y O *D mux16x1_project
*I *336:y O *D mux16x1_project
*CAP
1 io_out[0] 0.012933
2 *332:y 0.0100105
3 *333:y 0.000434137
4 *334:y 0.000434137
5 *335:y 0.000434137
6 *336:y 0.000434137
7 *106:43 0.0200042
8 *106:33 0.0196414
9 *106:23 0.0197295
10 *106:15 0.012933
11 *106:13 0.0549603
12 *106:11 0.055683
13 *106:7 0.0108045
*RES
1 *336:y *106:7 9.5736 
2 *106:7 *106:11 2.87093 
3 *106:11 *106:13 213.427 
4 *106:13 *106:15 8 
5 *106:15 io_out[0] 48.2851 
6 *106:7 *106:23 37.3744 
7 *106:23 *335:y 9.5736 
8 *106:23 *106:33 37.3744 
9 *106:33 *334:y 9.5736 
10 *106:33 *106:43 37.3744 
11 *106:43 *333:y 9.5736 
12 *106:43 *332:y 46.948 
*END

*D_NET *252 0.154309
*CONN
*I *332:data_in[0] I *D mux16x1_project
*I *337:X1_Y1 O *D sky130_osu_ring_oscillator_mpr2aa_8_b0r1
*CAP
1 *332:data_in[0] 0.00268955
2 *337:X1_Y1 0.000924537
3 *252:18 0.0566813
4 *252:16 0.0539917
5 *252:14 0.0135127
6 *252:12 0.0144373
7 *252:14 *260:20 0.0107333
8 *252:14 *261:9 0.00133828
9 *41:171 *252:14 0
10 *41:195 *252:14 0
*RES
1 *337:X1_Y1 *252:12 47.4592 
2 *252:12 *252:14 61.7456 
3 *252:14 *252:16 8 
4 *252:16 *252:18 198.58 
5 *252:18 *332:data_in[0] 10.3432 
*END

*D_NET *253 0.174964
*CONN
*I *332:data_in[10] I *D mux16x1_project
*I *338:X1_Y1 O *D sky130_osu_ring_oscillator_mpr2ca_8_b0r2
*CAP
1 *332:data_in[10] 0.000708839
2 *338:X1_Y1 0.000699275
3 *253:22 0.048507
4 *253:20 0.0477982
5 *253:18 0.0270397
6 *253:16 0.0270397
7 *253:14 0.00319686
8 *253:12 0.00389614
9 *332:data_in[10] *332:data_in[11] 0
10 *253:14 *269:16 0.000884401
11 *253:14 *285:12 0.00608349
12 *253:14 *301:12 0
13 *253:14 *301:14 0
14 *253:22 *310:14 0.00911085
*RES
1 *338:X1_Y1 *253:12 45.225 
2 *253:12 *253:14 96.6218 
3 *253:14 *253:16 15 
4 *253:16 *253:18 616.043 
5 *253:18 *253:20 15 
6 *253:20 *253:22 1047.33 
7 *253:22 *332:data_in[10] 26.7668 
*END

*D_NET *254 0.179621
*CONN
*I *332:data_in[11] I *D mux16x1_project
*I *339:X1_Y1 O *D sky130_osu_ring_oscillator_mpr2ct_8_b0r2
*CAP
1 *332:data_in[11] 0.000730233
2 *339:X1_Y1 0.000630921
3 *254:18 0.0500276
4 *254:16 0.0492974
5 *254:14 0.0314609
6 *254:12 0.0314609
7 *254:10 0.00358053
8 *254:8 0.00421145
9 *332:data_in[11] *332:data_in[12] 0
10 *254:10 *270:14 0.0082214
11 *332:data_in[10] *332:data_in[11] 0
*RES
1 *339:X1_Y1 *254:8 44.2411 
2 *254:8 *254:10 107.818 
3 *254:10 *254:12 15 
4 *254:12 *254:14 716.051 
5 *254:14 *254:16 15 
6 *254:16 *254:18 1040.19 
7 *254:18 *332:data_in[11] 27.119 
*END

*D_NET *255 0.306927
*CONN
*I *332:data_in[12] I *D mux16x1_project
*I *340:X1_Y1 O *D sky130_osu_ring_oscillator_mpr2ea_8_b0r2
*CAP
1 *332:data_in[12] 0.000455544
2 *340:X1_Y1 0.000428578
3 *255:22 0.0130634
4 *255:20 0.0126079
5 *255:18 0.0334197
6 *255:16 0.0343816
7 *255:8 0.00139049
8 *332:data_in[12] *332:data_in[13] 0
9 *255:16 *271:14 2.35133e-05
10 *255:18 *271:14 0.000397212
11 *255:18 *287:10 0.00246308
12 *255:18 *317:15 0.0974523
13 *255:22 *256:14 0.063163
14 *255:22 *269:22 0.000600174
15 *255:22 *272:14 0.0468655
16 *332:data_in[11] *332:data_in[12] 0
17 *30:43 *255:8 0.000215015
*RES
1 *340:X1_Y1 *255:8 39.6218 
2 *255:8 *255:16 20.5796 
3 *255:16 *255:18 1133.33 
4 *255:18 *255:20 15 
5 *255:20 *255:22 809.545 
6 *255:22 *332:data_in[12] 9.7024 
*END

*D_NET *256 0.29442
*CONN
*I *332:data_in[13] I *D mux16x1_project
*I *341:X1_Y1 O *D sky130_osu_ring_oscillator_mpr2et_8_b0r2
*CAP
1 *332:data_in[13] 0.000492409
2 *341:X1_Y1 0.000563876
3 *256:14 0.0259744
4 *256:12 0.025482
5 *256:10 0.0338592
6 *256:8 0.034423
7 *332:data_in[13] *332:data_in[14] 0