*SPEF "ieee 1481-1999"
*DESIGN "user_project_wrapper"
*DATE "11:11:11 Fri 11 11, 1111"
*VENDOR "OpenRCX"
*PROGRAM "Parallel Extraction"
*VERSION "1.0"
*DESIGN_FLOW "NAME_SCOPE LOCAL" "PIN_CAP NONE"
*DIVIDER /
*DELIMITER :
*BUS_DELIMITER []
*T_UNIT 1 NS
*C_UNIT 1 PF
*R_UNIT 1 OHM
*L_UNIT 1 HENRY

*NAME_MAP
*1 analog_io[0]
*2 analog_io[10]
*3 analog_io[11]
*4 analog_io[12]
*5 analog_io[13]
*6 analog_io[14]
*7 analog_io[15]
*8 analog_io[16]
*9 analog_io[17]
*10 analog_io[18]
*11 analog_io[19]
*12 analog_io[1]
*13 analog_io[20]
*14 analog_io[21]
*15 analog_io[22]
*16 analog_io[23]
*17 analog_io[24]
*18 analog_io[25]
*19 analog_io[26]
*20 analog_io[27]
*21 analog_io[28]
*22 analog_io[2]
*23 analog_io[3]
*24 analog_io[4]
*25 analog_io[5]
*26 analog_io[6]
*27 analog_io[7]
*28 analog_io[8]
*29 analog_io[9]
*30 io_in[0]
*31 io_in[10]
*32 io_in[11]
*33 io_in[12]
*34 io_in[13]
*35 io_in[14]
*36 io_in[15]
*37 io_in[16]
*38 io_in[17]
*39 io_in[18]
*40 io_in[19]
*41 io_in[1]
*42 io_in[20]
*43 io_in[21]
*44 io_in[22]
*45 io_in[23]
*46 io_in[24]
*47 io_in[25]
*48 io_in[26]
*49 io_in[27]
*50 io_in[28]
*51 io_in[29]
*52 io_in[2]
*53 io_in[30]
*54 io_in[31]
*55 io_in[32]
*56 io_in[33]
*57 io_in[34]
*58 io_in[35]
*59 io_in[36]
*60 io_in[37]
*61 io_in[3]
*62 io_in[4]
*63 io_in[5]
*64 io_in[6]
*65 io_in[7]
*66 io_in[8]
*67 io_in[9]
*68 io_oeb[0]
*69 io_oeb[10]
*70 io_oeb[11]
*71 io_oeb[12]
*72 io_oeb[13]
*73 io_oeb[14]
*74 io_oeb[15]
*75 io_oeb[16]
*76 io_oeb[17]
*77 io_oeb[18]
*78 io_oeb[19]
*79 io_oeb[1]
*80 io_oeb[20]
*81 io_oeb[21]
*82 io_oeb[22]
*83 io_oeb[23]
*84 io_oeb[24]
*85 io_oeb[25]
*86 io_oeb[26]
*87 io_oeb[27]
*88 io_oeb[28]
*89 io_oeb[29]
*90 io_oeb[2]
*91 io_oeb[30]
*92 io_oeb[31]
*93 io_oeb[32]
*94 io_oeb[33]
*95 io_oeb[34]
*96 io_oeb[35]
*97 io_oeb[36]
*98 io_oeb[37]
*99 io_oeb[3]
*100 io_oeb[4]
*101 io_oeb[5]
*102 io_oeb[6]
*103 io_oeb[7]
*104 io_oeb[8]
*105 io_oeb[9]
*106 io_out[0]
*107 io_out[10]
*108 io_out[11]
*109 io_out[12]
*110 io_out[13]
*111 io_out[14]
*112 io_out[15]
*113 io_out[16]
*114 io_out[17]
*115 io_out[18]
*116 io_out[19]
*117 io_out[1]
*118 io_out[20]
*119 io_out[21]
*120 io_out[22]
*121 io_out[23]
*122 io_out[24]
*123 io_out[25]
*124 io_out[26]
*125 io_out[27]
*126 io_out[28]
*127 io_out[29]
*128 io_out[2]
*129 io_out[30]
*130 io_out[31]
*131 io_out[32]
*132 io_out[33]
*133 io_out[34]
*134 io_out[35]
*135 io_out[36]
*136 io_out[37]
*137 io_out[3]
*138 io_out[4]
*139 io_out[5]
*140 io_out[6]
*141 io_out[7]
*142 io_out[8]
*143 io_out[9]
*146 wb_clk_i
*147 wb_rst_i
*148 wbs_ack_o
*149 wbs_adr_i[0]
*150 wbs_adr_i[10]
*151 wbs_adr_i[11]
*152 wbs_adr_i[12]
*153 wbs_adr_i[13]
*154 wbs_adr_i[14]
*155 wbs_adr_i[15]
*156 wbs_adr_i[16]
*157 wbs_adr_i[17]
*158 wbs_adr_i[18]
*159 wbs_adr_i[19]
*160 wbs_adr_i[1]
*161 wbs_adr_i[20]
*162 wbs_adr_i[21]
*163 wbs_adr_i[22]
*164 wbs_adr_i[23]
*165 wbs_adr_i[24]
*166 wbs_adr_i[25]
*167 wbs_adr_i[26]
*168 wbs_adr_i[27]
*169 wbs_adr_i[28]
*170 wbs_adr_i[29]
*171 wbs_adr_i[2]
*172 wbs_adr_i[30]
*173 wbs_adr_i[31]
*174 wbs_adr_i[3]
*175 wbs_adr_i[4]
*176 wbs_adr_i[5]
*177 wbs_adr_i[6]
*178 wbs_adr_i[7]
*179 wbs_adr_i[8]
*180 wbs_adr_i[9]
*181 wbs_cyc_i
*182 wbs_dat_i[0]
*183 wbs_dat_i[10]
*184 wbs_dat_i[11]
*185 wbs_dat_i[12]
*186 wbs_dat_i[13]
*187 wbs_dat_i[14]
*188 wbs_dat_i[15]
*189 wbs_dat_i[16]
*190 wbs_dat_i[17]
*191 wbs_dat_i[18]
*192 wbs_dat_i[19]
*193 wbs_dat_i[1]
*194 wbs_dat_i[20]
*195 wbs_dat_i[21]
*196 wbs_dat_i[22]
*197 wbs_dat_i[23]
*198 wbs_dat_i[24]
*199 wbs_dat_i[25]
*200 wbs_dat_i[26]
*201 wbs_dat_i[27]
*202 wbs_dat_i[28]
*203 wbs_dat_i[29]
*204 wbs_dat_i[2]
*205 wbs_dat_i[30]
*206 wbs_dat_i[31]
*207 wbs_dat_i[3]
*208 wbs_dat_i[4]
*209 wbs_dat_i[5]
*210 wbs_dat_i[6]
*211 wbs_dat_i[7]
*212 wbs_dat_i[8]
*213 wbs_dat_i[9]
*214 wbs_dat_o[0]
*215 wbs_dat_o[10]
*216 wbs_dat_o[11]
*217 wbs_dat_o[12]
*218 wbs_dat_o[13]
*219 wbs_dat_o[14]
*220 wbs_dat_o[15]
*221 wbs_dat_o[16]
*222 wbs_dat_o[17]
*223 wbs_dat_o[18]
*224 wbs_dat_o[19]
*225 wbs_dat_o[1]
*226 wbs_dat_o[20]
*227 wbs_dat_o[21]
*228 wbs_dat_o[22]
*229 wbs_dat_o[23]
*230 wbs_dat_o[24]
*231 wbs_dat_o[25]
*232 wbs_dat_o[26]
*233 wbs_dat_o[27]
*234 wbs_dat_o[28]
*235 wbs_dat_o[29]
*236 wbs_dat_o[2]
*237 wbs_dat_o[30]
*238 wbs_dat_o[31]
*239 wbs_dat_o[3]
*240 wbs_dat_o[4]
*241 wbs_dat_o[5]
*242 wbs_dat_o[6]
*243 wbs_dat_o[7]
*244 wbs_dat_o[8]
*245 wbs_dat_o[9]
*246 wbs_sel_i[0]
*247 wbs_sel_i[1]
*248 wbs_sel_i[2]
*249 wbs_sel_i[3]
*250 wbs_stb_i
*251 wbs_we_i
*252 x1\[0\]
*253 x1\[10\]
*254 x1\[11\]
*255 x1\[12\]
*256 x1\[13\]
*257 x1\[14\]
*258 x1\[15\]
*259 x1\[1\]
*260 x1\[2\]
*261 x1\[3\]
*262 x1\[4\]
*263 x1\[5\]
*264 x1\[6\]
*265 x1\[7\]
*266 x1\[8\]
*267 x1\[9\]
*268 x2\[0\]
*269 x2\[10\]
*270 x2\[11\]
*271 x2\[12\]
*272 x2\[13\]
*273 x2\[14\]
*274 x2\[15\]
*275 x2\[1\]
*276 x2\[2\]
*277 x2\[3\]
*278 x2\[4\]
*279 x2\[5\]
*280 x2\[6\]
*281 x2\[7\]
*282 x2\[8\]
*283 x2\[9\]
*284 x3\[0\]
*285 x3\[10\]
*286 x3\[11\]
*287 x3\[12\]
*288 x3\[13\]
*289 x3\[14\]
*290 x3\[15\]
*291 x3\[1\]
*292 x3\[2\]
*293 x3\[3\]
*294 x3\[4\]
*295 x3\[5\]
*296 x3\[6\]
*297 x3\[7\]
*298 x3\[8\]
*299 x3\[9\]
*300 x4\[0\]
*301 x4\[10\]
*302 x4\[11\]
*303 x4\[12\]
*304 x4\[13\]
*305 x4\[14\]
*306 x4\[15\]
*307 x4\[1\]
*308 x4\[2\]
*309 x4\[3\]
*310 x4\[4\]
*311 x4\[5\]
*312 x4\[6\]
*313 x4\[7\]
*314 x4\[8\]
*315 x4\[9\]
*316 x5\[0\]
*317 x5\[10\]
*318 x5\[11\]
*319 x5\[12\]
*320 x5\[13\]
*321 x5\[14\]
*322 x5\[15\]
*323 x5\[1\]
*324 x5\[2\]
*325 x5\[3\]
*326 x5\[4\]
*327 x5\[5\]
*328 x5\[6\]
*329 x5\[7\]
*330 x5\[8\]
*331 x5\[9\]
*332 mprj1
*333 mprj2
*334 mprj3
*335 mprj4
*336 mprj5
*337 ro1
*338 ro10
*339 ro11
*340 ro12
*341 ro13
*342 ro14
*343 ro15
*344 ro16
*345 ro2
*346 ro3
*347 ro4
*348 ro5
*349 ro6
*350 ro7
*351 ro8
*352 ro9

*PORTS
analog_io[0] I
analog_io[10] I
analog_io[11] I
analog_io[12] I
analog_io[13] I
analog_io[14] I
analog_io[15] I
analog_io[16] I
analog_io[17] I
analog_io[18] I
analog_io[19] I
analog_io[1] I
analog_io[20] I
analog_io[21] I
analog_io[22] I
analog_io[23] I
analog_io[24] I
analog_io[25] I
analog_io[26] I
analog_io[27] I
analog_io[28] I
analog_io[2] I
analog_io[3] I
analog_io[4] I
analog_io[5] I
analog_io[6] I
analog_io[7] I
analog_io[8] I
analog_io[9] I
io_in[0] I
io_in[10] I
io_in[11] I
io_in[12] I
io_in[13] I
io_in[14] I
io_in[15] I
io_in[16] I
io_in[17] I
io_in[18] I
io_in[19] I
io_in[1] I
io_in[20] I
io_in[21] I
io_in[22] I
io_in[23] I
io_in[24] I
io_in[25] I
io_in[26] I
io_in[27] I
io_in[28] I
io_in[29] I
io_in[2] I
io_in[30] I
io_in[31] I
io_in[32] I
io_in[33] I
io_in[34] I
io_in[35] I
io_in[36] I
io_in[37] I
io_in[3] I
io_in[4] I
io_in[5] I
io_in[6] I
io_in[7] I
io_in[8] I
io_in[9] I
io_oeb[0] O
io_oeb[10] O
io_oeb[11] O
io_oeb[12] O
io_oeb[13] O
io_oeb[14] O
io_oeb[15] O
io_oeb[16] O
io_oeb[17] O
io_oeb[18] O
io_oeb[19] O
io_oeb[1] O
io_oeb[20] O
io_oeb[21] O
io_oeb[22] O
io_oeb[23] O
io_oeb[24] O
io_oeb[25] O
io_oeb[26] O
io_oeb[27] O
io_oeb[28] O
io_oeb[29] O
io_oeb[2] O
io_oeb[30] O
io_oeb[31] O
io_oeb[32] O
io_oeb[33] O
io_oeb[34] O
io_oeb[35] O
io_oeb[36] O
io_oeb[37] O
io_oeb[3] O
io_oeb[4] O
io_oeb[5] O
io_oeb[6] O
io_oeb[7] O
io_oeb[8] O
io_oeb[9] O
io_out[0] O
io_out[10] O
io_out[11] O
io_out[12] O
io_out[13] O
io_out[14] O
io_out[15] O
io_out[16] O
io_out[17] O
io_out[18] O
io_out[19] O
io_out[1] O
io_out[20] O
io_out[21] O
io_out[22] O
io_out[23] O
io_out[24] O
io_out[25] O
io_out[26] O
io_out[27] O
io_out[28] O
io_out[29] O
io_out[2] O
io_out[30] O
io_out[31] O
io_out[32] O
io_out[33] O
io_out[34] O
io_out[35] O
io_out[36] O
io_out[37] O
io_out[3] O
io_out[4] O
io_out[5] O
io_out[6] O
io_out[7] O
io_out[8] O
io_out[9] O
wb_clk_i I
wb_rst_i I
wbs_ack_o O
wbs_adr_i[0] I
wbs_adr_i[10] I
wbs_adr_i[11] I
wbs_adr_i[12] I
wbs_adr_i[13] I
wbs_adr_i[14] I
wbs_adr_i[15] I
wbs_adr_i[16] I
wbs_adr_i[17] I
wbs_adr_i[18] I
wbs_adr_i[19] I
wbs_adr_i[1] I
wbs_adr_i[20] I
wbs_adr_i[21] I
wbs_adr_i[22] I
wbs_adr_i[23] I
wbs_adr_i[24] I
wbs_adr_i[25] I
wbs_adr_i[26] I
wbs_adr_i[27] I
wbs_adr_i[28] I
wbs_adr_i[29] I
wbs_adr_i[2] I
wbs_adr_i[30] I
wbs_adr_i[31] I
wbs_adr_i[3] I
wbs_adr_i[4] I
wbs_adr_i[5] I
wbs_adr_i[6] I
wbs_adr_i[7] I
wbs_adr_i[8] I
wbs_adr_i[9] I
wbs_cyc_i I
wbs_dat_i[0] I
wbs_dat_i[10] I
wbs_dat_i[11] I
wbs_dat_i[12] I
wbs_dat_i[13] I
wbs_dat_i[14] I
wbs_dat_i[15] I
wbs_dat_i[16] I
wbs_dat_i[17] I
wbs_dat_i[18] I
wbs_dat_i[19] I
wbs_dat_i[1] I
wbs_dat_i[20] I
wbs_dat_i[21] I
wbs_dat_i[22] I
wbs_dat_i[23] I
wbs_dat_i[24] I
wbs_dat_i[25] I
wbs_dat_i[26] I
wbs_dat_i[27] I
wbs_dat_i[28] I
wbs_dat_i[29] I
wbs_dat_i[2] I
wbs_dat_i[30] I
wbs_dat_i[31] I
wbs_dat_i[3] I
wbs_dat_i[4] I
wbs_dat_i[5] I
wbs_dat_i[6] I
wbs_dat_i[7] I
wbs_dat_i[8] I
wbs_dat_i[9] I
wbs_dat_o[0] O
wbs_dat_o[10] O
wbs_dat_o[11] O
wbs_dat_o[12] O
wbs_dat_o[13] O
wbs_dat_o[14] O
wbs_dat_o[15] O
wbs_dat_o[16] O
wbs_dat_o[17] O
wbs_dat_o[18] O
wbs_dat_o[19] O
wbs_dat_o[1] O
wbs_dat_o[20] O
wbs_dat_o[21] O
wbs_dat_o[22] O
wbs_dat_o[23] O
wbs_dat_o[24] O
wbs_dat_o[25] O
wbs_dat_o[26] O
wbs_dat_o[27] O
wbs_dat_o[28] O
wbs_dat_o[29] O
wbs_dat_o[2] O
wbs_dat_o[30] O
wbs_dat_o[31] O
wbs_dat_o[3] O
wbs_dat_o[4] O
wbs_dat_o[5] O
wbs_dat_o[6] O
wbs_dat_o[7] O
wbs_dat_o[8] O
wbs_dat_o[9] O
wbs_sel_i[0] I
wbs_sel_i[1] I
wbs_sel_i[2] I
wbs_sel_i[3] I
wbs_stb_i I
wbs_we_i I

*D_NET *30 0.347062
*CONN
*P io_in[0] I
*I *337:s1 I *D sky130_osu_ring_oscillator_mpr2aa_8_b0r1
*I *345:s1 I *D sky130_osu_ring_oscillator_mpr2at_8_b0r1
*I *346:s1 I *D sky130_osu_ring_oscillator_mpr2ca_8_b0r1
*I *347:s1 I *D sky130_osu_ring_oscillator_mpr2ct_8_b0r1
*I *348:s1 I *D sky130_osu_ring_oscillator_mpr2ea_8_b0r1
*I *349:s1 I *D sky130_osu_ring_oscillator_mpr2et_8_b0r1
*I *350:s1 I *D sky130_osu_ring_oscillator_mpr2xa_8_b0r1
*I *351:s1 I *D sky130_osu_ring_oscillator_mpr2ya_8_b0r1
*I *352:s1 I *D sky130_osu_ring_oscillator_mpr2aa_8_b0r2
*I *338:s1 I *D sky130_osu_ring_oscillator_mpr2at_8_b0r2
*I *339:s1 I *D sky130_osu_ring_oscillator_mpr2ca_8_b0r2
*I *340:s1 I *D sky130_osu_ring_oscillator_mpr2ct_8_b0r2
*I *341:s1 I *D sky130_osu_ring_oscillator_mpr2ea_8_b0r2
*I *342:s1 I *D sky130_osu_ring_oscillator_mpr2et_8_b0r2
*I *343:s1 I *D sky130_osu_ring_oscillator_mpr2xa_8_b0r2
*I *344:s1 I *D sky130_osu_ring_oscillator_mpr2ya_8_b0r2
*CAP
1 io_in[0] 0.0649407
2 *337:s1 0.004321
3 *345:s1 0.000153621
4 *346:s1 0.000194302
5 *347:s1 0.000220773
6 *348:s1 0.000221709
7 *349:s1 9.92048e-05
8 *350:s1 0.000222626
9 *351:s1 7.5811e-05
10 *352:s1 0.000220711
11 *338:s1 0.000235662
12 *339:s1 0.0001397
13 *340:s1 0.000121773
14 *341:s1 0.000152236
15 *342:s1 0.000143347
16 *343:s1 7.60356e-05
17 *344:s1 0.000108966
18 *30:277 0.00901925
19 *30:253 0.00913551
20 *30:235 0.00937232
21 *30:211 0.0090303
22 *30:197 0.00911086
23 *30:173 0.00925531
24 *30:159 0.0087046
25 *30:139 0.00865168
26 *30:122 0.00866729
27 *30:108 0.00882415
28 *30:93 0.00882163
29 *30:73 0.00910353
30 *30:53 0.00911502
31 *30:37 0.00911759
32 *30:13 0.00495332
33 *30:9 0.0398276
34 *30:7 0.0394342
35 *30:5 0.0649407
36 *337:s1 *252:16 0
37 *348:s1 *262:8 0
38 *350:s1 *264:16 0
39 *352:s1 *266:8 0
40 *30:9 *258:12 0.000329461
41 *30:235 *259:20 0
42 *30:253 *259:20 0
43 *30:277 *252:16 0
44 *30:277 *259:20 0
*RES
1 io_in[0] *30:5 182.627 
2 *30:5 *30:7 0.5 
3 *30:7 *30:9 116.473 
4 *30:9 *30:13 1.07667 
5 *30:13 *344:s1 2.29713 
6 *30:13 *30:37 13.5454 
7 *30:37 *343:s1 1.80125 
8 *30:37 *30:53 13.5581 
9 *30:53 *342:s1 2.36665 
10 *30:53 *30:73 13.1252 
11 *30:73 *341:s1 2.91963 
12 *30:73 *30:93 13.0644 
13 *30:93 *340:s1 1.3458 
14 *30:93 *30:108 12.4412 
15 *30:108 *339:s1 2.50915 
16 *30:108 *30:122 12.958 
17 *30:122 *338:s1 4.66183 
18 *30:122 *30:139 11.666 
19 *30:139 *352:s1 4.55088 
20 *30:139 *30:159 13.1303 
21 *30:159 *351:s1 1.68213 
22 *30:159 *30:173 12.2689 
23 *30:173 *350:s1 4.55463 
24 *30:173 *30:197 14.1031 
25 *30:197 *349:s1 1.6879 
26 *30:197 *30:211 11.9244 
27 *30:211 *348:s1 4.52088 
28 *30:211 *30:235 13.5863 
29 *30:235 *347:s1 3.81617 
30 *30:235 *30:253 12.8719 
31 *30:253 *346:s1 3.80463 
32 *30:253 *30:277 13.3431 
33 *30:277 *345:s1 2.91963 
34 *30:277 *337:s1 13.3411 
*END

*D_NET *41 0.365282
*CONN
*P io_in[1] I
*I *338:s2 I *D sky130_osu_ring_oscillator_mpr2at_8_b0r2
*I *337:s2 I *D sky130_osu_ring_oscillator_mpr2aa_8_b0r1
*I *345:s2 I *D sky130_osu_ring_oscillator_mpr2at_8_b0r1
*I *346:s2 I *D sky130_osu_ring_oscillator_mpr2ca_8_b0r1
*I *347:s2 I *D sky130_osu_ring_oscillator_mpr2ct_8_b0r1
*I *348:s2 I *D sky130_osu_ring_oscillator_mpr2ea_8_b0r1
*I *349:s2 I *D sky130_osu_ring_oscillator_mpr2et_8_b0r1
*I *350:s2 I *D sky130_osu_ring_oscillator_mpr2xa_8_b0r1
*I *351:s2 I *D sky130_osu_ring_oscillator_mpr2ya_8_b0r1
*I *352:s2 I *D sky130_osu_ring_oscillator_mpr2aa_8_b0r2
*I *339:s2 I *D sky130_osu_ring_oscillator_mpr2ca_8_b0r2
*I *340:s2 I *D sky130_osu_ring_oscillator_mpr2ct_8_b0r2
*I *341:s2 I *D sky130_osu_ring_oscillator_mpr2ea_8_b0r2
*I *342:s2 I *D sky130_osu_ring_oscillator_mpr2et_8_b0r2
*I *343:s2 I *D sky130_osu_ring_oscillator_mpr2xa_8_b0r2
*I *344:s2 I *D sky130_osu_ring_oscillator_mpr2ya_8_b0r2
*CAP
1 io_in[1] 0.0643525
2 *338:s2 7.39212e-05
3 *337:s2 0.00559744
4 *345:s2 0.0111867
5 *346:s2 0.000432555
6 *347:s2 0.000265905
7 *348:s2 0.000114133
8 *349:s2 0.000122556
9 *350:s2 0.000140352
10 *351:s2 8.11392e-05
11 *352:s2 0.000143853
12 *339:s2 0.000340279
13 *340:s2 0.000266563
14 *341:s2 0.000196638
15 *342:s2 0.000967082
16 *343:s2 0.000163473
17 *344:s2 0.000138667
18 *41:248 0.0110867
19 *41:237 0.011341
20 *41:219 0.0112867
21 *41:194 0.0103549
22 *41:176 0.00996345
23 *41:161 0.00993512
24 *41:141 0.010462
25 *41:131 0.0109415
26 *41:116 0.0111458
27 *41:105 0.0109773
28 *41:83 0.0108047
29 *41:49 0.0113893
30 *41:31 0.0104871
31 *41:13 0.00538202
32 *41:9 0.0346225
33 *41:7 0.0343332
34 *41:5 0.0643525
35 *337:s2 *252:16 0
36 *345:s2 *275:16 0.000529038
37 *345:s2 *275:18 0
38 *346:s2 *276:12 0
39 *348:s2 *278:16 0
40 *41:105 *270:12 0.00045871
41 *41:131 *283:10 0.000270002
42 *41:237 *275:18 0
43 *41:237 *277:16 0.000574941
44 *41:248 *275:18 0
*RES
1 io_in[1] *41:5 180.879 
2 *41:5 *41:7 0.5 
3 *41:7 *41:9 91.3216 
4 *41:9 *41:13 0.732133 
5 *41:13 *344:s2 2.4904 
6 *41:13 *41:31 13.6724 
7 *41:31 *343:s2 2.42492 
8 *41:31 *41:49 14.2323 
9 *41:49 *342:s2 11.3435 
10 *41:49 *41:83 12.2661 
11 *41:83 *341:s2 5.815 
12 *41:83 *41:105 13.6163 
13 *41:105 *340:s2 1.513 
14 *41:105 *41:116 12.6996 
15 *41:116 *339:s2 1.65487 
16 *41:116 *41:131 13.7911 
17 *41:131 *41:141 12.6841 
18 *41:141 *352:s2 2.58415 
19 *41:141 *41:161 13.1505 
20 *41:161 *351:s2 1.19507 
21 *41:161 *41:176 13.3279 
22 *41:176 *350:s2 2.21117 
23 *41:176 *41:194 13.414 
24 *41:194 *349:s2 4.1979 
25 *41:194 *41:219 12.8563 
26 *41:219 *348:s2 4.39 
27 *41:219 *41:237 14.5967 
28 *41:237 *347:s2 1.51173 
29 *41:237 *41:248 12.2689 
30 *41:248 *346:s2 2.97355 
31 *41:248 *345:s2 14.4653 
32 *345:s2 *337:s2 28.076 
33 *41:131 *338:s2 3.7375 
*END

*D_NET *52 0.395538
*CONN
*P io_in[2] I
*I *337:s3 I *D sky130_osu_ring_oscillator_mpr2aa_8_b0r1
*I *345:s3 I *D sky130_osu_ring_oscillator_mpr2at_8_b0r1
*I *346:s3 I *D sky130_osu_ring_oscillator_mpr2ca_8_b0r1
*I *347:s3 I *D sky130_osu_ring_oscillator_mpr2ct_8_b0r1
*I *348:s3 I *D sky130_osu_ring_oscillator_mpr2ea_8_b0r1
*I *349:s3 I *D sky130_osu_ring_oscillator_mpr2et_8_b0r1
*I *350:s3 I *D sky130_osu_ring_oscillator_mpr2xa_8_b0r1
*I *351:s3 I *D sky130_osu_ring_oscillator_mpr2ya_8_b0r1
*I *352:s3 I *D sky130_osu_ring_oscillator_mpr2aa_8_b0r2
*I *338:s3 I *D sky130_osu_ring_oscillator_mpr2at_8_b0r2
*I *339:s3 I *D sky130_osu_ring_oscillator_mpr2ca_8_b0r2
*I *340:s3 I *D sky130_osu_ring_oscillator_mpr2ct_8_b0r2
*I *341:s3 I *D sky130_osu_ring_oscillator_mpr2ea_8_b0r2
*I *342:s3 I *D sky130_osu_ring_oscillator_mpr2et_8_b0r2
*I *343:s3 I *D sky130_osu_ring_oscillator_mpr2xa_8_b0r2
*I *344:s3 I *D sky130_osu_ring_oscillator_mpr2ya_8_b0r2
*CAP
1 io_in[2] 0.000726364
2 *337:s3 0.00505506
3 *345:s3 0.000329762
4 *346:s3 0.000167506
5 *347:s3 0.000177064
6 *348:s3 0.000203119
7 *349:s3 0.000104906
8 *350:s3 0.000182128
9 *351:s3 3.42254e-05
10 *352:s3 0.000173719
11 *338:s3 5.62974e-05
12 *339:s3 5.62148e-05
13 *340:s3 3.48835e-05
14 *341:s3 0.000167169
15 *342:s3 9.51468e-05
16 *343:s3 0.000104117
17 *344:s3 0.000480472
18 *52:272 0.0118784
19 *52:251 0.010712
20 *52:235 0.00931403
21 *52:211 0.00993065
22 *52:190 0.00956479
23 *52:172 0.00906449
24 *52:161 0.00869367
25 *52:141 0.00900152
26 *52:126 0.00886869
27 *52:115 0.00907854
28 *52:104 0.00911718
29 *52:86 0.00986431
30 *52:65 0.0101353
31 *52:43 0.00896172
32 *52:15 0.00435503
33 *52:13 0.0389668
34 *52:11 0.0389668
35 *52:9 0.0174655
36 *52:7 0.0181918
37 *348:s3 *294:10 0
38 *350:s3 *296:16 0
39 *52:9 *61:9 0.0132615
40 *52:13 *344:s4 0.000442666
41 *52:13 *61:13 0.119169
42 *52:161 *296:16 0.000267049
43 *52:172 *296:16 0
44 *52:190 *275:18 0.000574364
45 *52:211 *275:18 0.0001121
46 *52:235 *275:18 0.000456811
47 *52:251 *275:18 0.000971688
48 *52:272 *275:18 4.01793e-06
*RES
1 io_in[2] *52:7 2.58747 
2 *52:7 *52:9 401.985 
3 *52:9 *52:11 0.5 
4 *52:11 *52:13 177.052 
5 *52:13 *52:15 0.5 
6 *52:15 *344:s3 12.64 
7 *52:15 *52:43 16.4807 
8 *52:43 *343:s3 2.139 
9 *52:43 *52:65 13.262 
10 *52:65 *342:s3 3.89963 
11 *52:65 *52:86 13.1505 
12 *52:86 *341:s3 3.52713 
13 *52:86 *52:104 12.6996 
14 *52:104 *340:s3 1.06713 
15 *52:104 *52:115 12.6996 
16 *52:115 *339:s3 1.1235 
17 *52:115 *52:126 12.5273 
18 *52:126 *338:s3 3.28463 
19 *52:126 *52:141 12.0967 
20 *52:141 *352:s3 3.45963 
21 *52:141 *52:161 13.5001 
22 *52:161 *351:s3 1.06587 
23 *52:161 *52:172 12.2689 
24 *52:172 *350:s3 3.66963 
25 *52:172 *52:190 13.9308 
26 *52:190 *349:s3 4.13963 
27 *52:190 *52:211 12.2892 
28 *52:211 *348:s3 4.18338 
29 *52:211 *52:235 13.6673 
30 *52:235 *347:s3 3.0979 
31 *52:235 *52:251 12.6135 
32 *52:251 *346:s3 1.37493 
33 *52:251 *52:272 13.4596 
34 *52:272 *345:s3 3.57673 
35 *52:272 *337:s3 13.5609 
*END

*D_NET *61 0.450299
*CONN
*P io_in[3] I
*I *347:s4 I *D sky130_osu_ring_oscillator_mpr2ct_8_b0r1
*I *337:s4 I *D sky130_osu_ring_oscillator_mpr2aa_8_b0r1
*I *345:s4 I *D sky130_osu_ring_oscillator_mpr2at_8_b0r1
*I *346:s4 I *D sky130_osu_ring_oscillator_mpr2ca_8_b0r1
*I *348:s4 I *D sky130_osu_ring_oscillator_mpr2ea_8_b0r1
*I *349:s4 I *D sky130_osu_ring_oscillator_mpr2et_8_b0r1
*I *350:s4 I *D sky130_osu_ring_oscillator_mpr2xa_8_b0r1
*I *351:s4 I *D sky130_osu_ring_oscillator_mpr2ya_8_b0r1
*I *352:s4 I *D sky130_osu_ring_oscillator_mpr2aa_8_b0r2
*I *338:s4 I *D sky130_osu_ring_oscillator_mpr2at_8_b0r2
*I *339:s4 I *D sky130_osu_ring_oscillator_mpr2ca_8_b0r2
*I *340:s4 I *D sky130_osu_ring_oscillator_mpr2ct_8_b0r2
*I *341:s4 I *D sky130_osu_ring_oscillator_mpr2ea_8_b0r2
*I *342:s4 I *D sky130_osu_ring_oscillator_mpr2et_8_b0r2
*I *343:s4 I *D sky130_osu_ring_oscillator_mpr2xa_8_b0r2
*I *344:s4 I *D sky130_osu_ring_oscillator_mpr2ya_8_b0r2
*CAP
1 io_in[3] 0.000693236
2 *347:s4 0.000206282
3 *337:s4 0.00477649
4 *345:s4 7.96767e-05
5 *346:s4 3.48835e-05
6 *348:s4 0.000175856
7 *349:s4 0.000196433
8 *350:s4 0.000267307
9 *351:s4 0.000195735
10 *352:s4 0.000180256
11 *338:s4 9.77057e-05
12 *339:s4 2.69597e-05
13 *340:s4 3.48835e-05
14 *341:s4 0.000185221
15 *342:s4 0.00021071
16 *343:s4 0.000236065
17 *344:s4 0.000649258
18 *61:238 0.00922722
19 *61:227 0.00846212
20 *61:225 0.0091119
21 *61:203 0.00903326
22 *61:188 0.00892911
23 *61:164 0.00901496
24 *61:149 0.00718309
25 *61:133 0.00590587
26 *61:112 0.00565005
27 *61:101 0.00703656
28 *61:90 0.00868254
29 *61:70 0.00900818
30 *61:49 0.00906451
31 *61:38 0.00840787
32 *61:13 0.0187208
33 *61:11 0.0143598
34 *61:9 0.00736018
35 *61:7 0.00805341
36 *337:s4 *300:8 0.000528389
37 *339:s4 *313:26 2.15872e-05
38 *348:s4 *310:16 0
39 *350:s4 *312:12 0
40 *352:s4 *334:data_in[6] 0
41 *61:9 *62:9 0.00543626
42 *61:13 *62:13 0.118377
43 *61:38 *305:8 0.000355329
44 *61:70 *303:12 0.000260796
45 *61:101 *62:101 0
46 *61:101 *62:123 0
47 *61:112 *62:123 0
48 *61:112 *310:18 0
49 *61:112 *313:24 0.00690559
50 *61:133 *310:18 0
51 *61:133 *313:24 0.00730352
52 *61:133 *314:8 0.0005409
53 *61:149 *291:18 0
54 *61:149 *310:18 0
55 *61:149 *313:24 0.00544562
56 *61:164 *291:18 0.000286823
57 *61:164 *310:18 0
58 *61:188 *291:18 0.00018796
59 *61:188 *310:18 0
60 *61:203 *291:18 0
61 *61:203 *310:16 0.000317547
62 *61:203 *310:18 0
63 *61:225 *291:18 0
64 *61:227 *291:18 0
65 *61:238 *291:18 0
66 *52:9 *61:9 0.0132615
67 *52:13 *344:s4 0.000442666
68 *52:13 *61:13 0.119169
*RES
1 io_in[3] *61:7 2.47093 
2 *61:7 *61:9 253.065 
3 *61:9 *61:11 0.5 
4 *61:11 *61:13 174.634 
5 *61:13 *344:s4 12.0748 
6 *61:13 *61:38 11.6492 
7 *61:38 *343:s4 1.6403 
8 *61:38 *61:49 12.7857 
9 *61:49 *342:s4 4.24923 
10 *61:49 *61:70 13.1505 
11 *61:70 *341:s4 3.85338 
12 *61:70 *61:90 12.6996 
13 *61:90 *340:s4 1.06713 
14 *61:90 *61:101 12.6996 
15 *61:101 *339:s4 1.06587 
16 *61:101 *61:112 12.5273 
17 *61:112 *338:s4 4.07963 
18 *61:112 *61:133 13.6429 
19 *61:133 *352:s4 1.99068 
20 *61:133 *61:149 12.6828 
21 *61:149 *351:s4 1.5244 
22 *61:149 *61:164 12.578 
23 *61:164 *350:s4 5.30463 
24 *61:164 *61:188 13.8143 
25 *61:188 *349:s4 4.03923 
26 *61:188 *61:203 12.0967 
27 *61:203 *348:s4 3.56463 
28 *61:203 *61:225 14.0575 
29 *61:225 *61:227 11.9649 
30 *61:227 *346:s4 1.06713 
31 *61:227 *61:238 12.8719 
32 *61:238 *345:s4 3.80963 
33 *61:238 *337:s4 15.5156 
34 *61:225 *347:s4 1.77963 
*END

*D_NET *62 0.363871
*CONN
*P io_in[4] I
*I *342:s5 I *D sky130_osu_ring_oscillator_mpr2et_8_b0r2
*I *345:s5 I *D sky130_osu_ring_oscillator_mpr2at_8_b0r1
*I *337:s5 I *D sky130_osu_ring_oscillator_mpr2aa_8_b0r1
*I *346:s5 I *D sky130_osu_ring_oscillator_mpr2ca_8_b0r1
*I *347:s5 I *D sky130_osu_ring_oscillator_mpr2ct_8_b0r1
*I *348:s5 I *D sky130_osu_ring_oscillator_mpr2ea_8_b0r1
*I *349:s5 I *D sky130_osu_ring_oscillator_mpr2et_8_b0r1
*I *350:s5 I *D sky130_osu_ring_oscillator_mpr2xa_8_b0r1
*I *351:s5 I *D sky130_osu_ring_oscillator_mpr2ya_8_b0r1
*I *352:s5 I *D sky130_osu_ring_oscillator_mpr2aa_8_b0r2
*I *338:s5 I *D sky130_osu_ring_oscillator_mpr2at_8_b0r2
*I *339:s5 I *D sky130_osu_ring_oscillator_mpr2ca_8_b0r2
*I *340:s5 I *D sky130_osu_ring_oscillator_mpr2ct_8_b0r2
*I *341:s5 I *D sky130_osu_ring_oscillator_mpr2ea_8_b0r2
*I *343:s5 I *D sky130_osu_ring_oscillator_mpr2xa_8_b0r2
*I *344:s5 I *D sky130_osu_ring_oscillator_mpr2ya_8_b0r2
*CAP
1 io_in[4] 0.000652687
2 *342:s5 0.00101103
3 *345:s5 0.00017589
4 *337:s5 0.00506132
5 *346:s5 0.000104507
6 *347:s5 0.000154778
7 *348:s5 0.000222535
8 *349:s5 0.000378906
9 *350:s5 0.000203151
10 *351:s5 0.00012568
11 *352:s5 0.000122905
12 *338:s5 0.000996071
13 *339:s5 0.000101978
14 *340:s5 0.000202872
15 *341:s5 0.000178349
16 *343:s5 0.000171714
17 *344:s5 0.000555943
18 *62:316 6.40319e-06
19 *62:282 0.00974707
20 *62:264 0.00886037
21 *62:250 0.00902194
22 *62:230 0.00900227
23 *62:207 0.00797019
24 *62:179 0.00599346
25 *62:165 0.0050913
26 *62:151 0.00510557
27 *62:123 0.00564863
28 *62:101 0.00656934
29 *62:82 0.00886742
30 *62:66 0.00872221
31 *62:58 0.0101844
32 *62:43 0.00907276
33 *62:15 0.004346
34 *62:13 0.0378613
35 *62:11 0.0378613
36 *62:9 0.00382703
37 *62:7 0.00447972
38 *339:s5 *313:26 1.45731e-05
39 *62:58 *304:8 0.000408906
40 *62:101 *315:16 0.000564662
41 *62:123 *310:18 0
42 *62:123 *311:14 0.00675159
43 *62:123 *315:16 0.0049494
44 *62:151 *310:18 0.000279937
45 *62:151 *311:14 0.005337
46 *62:165 *310:18 0.000934112
47 *62:165 *311:14 0.00287414
48 *62:179 *310:18 0.000968639
49 *62:179 *311:14 0.00296302
50 *62:207 *310:18 0.00018796
51 *62:207 *311:14 0.0051649
52 *62:230 *310:18 0
53 *61:9 *62:9 0.00543626
54 *61:13 *62:13 0.118377
55 *61:101 *62:101 0
56 *61:101 *62:123 0
57 *61:112 *62:123 0
*RES
1 io_in[4] *62:7 2.3544 
2 *62:7 *62:9 104.145 
3 *62:9 *62:11 0.5 
4 *62:11 *62:13 173.44 
5 *62:13 *62:15 0.5 
6 *62:15 *344:s5 13.765 
7 *62:15 *62:43 15.6101 
8 *62:43 *343:s5 1.45537 
9 *62:43 *62:58 15.168 
10 *62:58 *62:66 12.5055 
11 *62:66 *341:s5 3.41463 
12 *62:66 *62:82 12.7857 
13 *62:82 *340:s5 1.57887 
14 *62:82 *62:101 13.186 
15 *62:101 *339:s5 2.25963 
16 *62:101 *62:123 15.3311 
17 *62:123 *338:s5 15.2082 
18 *62:123 *62:151 11.7167 
19 *62:151 *352:s5 2.53713 
20 *62:151 *62:165 12.3551 
21 *62:165 *351:s5 1.69367 
22 *62:165 *62:179 12.2689 
23 *62:179 *350:s5 5.85713 
24 *62:179 *62:207 14.0068 
25 *62:207 *349:s5 4.56363 
26 *62:207 *62:230 12.5983 
27 *62:230 *348:s5 4.53588 
28 *62:230 *62:250 13.2164 
29 *62:250 *347:s5 2.7829 
30 *62:250 *62:264 12.4412 
31 *62:264 *346:s5 2.13963 
32 *62:264 *62:282 13.2975 
33 *62:282 *337:s5 16.4067 
34 *62:282 *345:s5 2.9638 
35 *345:s5 *62:316 0.2325 
36 *62:58 *342:s5 11.8442 
*END

*D_NET *63 0.269364
*CONN
*P io_in[5] I
*I *337:start I *D sky130_osu_ring_oscillator_mpr2aa_8_b0r1
*I *345:start I *D sky130_osu_ring_oscillator_mpr2at_8_b0r1
*I *346:start I *D sky130_osu_ring_oscillator_mpr2ca_8_b0r1
*I *347:start I *D sky130_osu_ring_oscillator_mpr2ct_8_b0r1
*I *348:start I *D sky130_osu_ring_oscillator_mpr2ea_8_b0r1
*I *349:start I *D sky130_osu_ring_oscillator_mpr2et_8_b0r1
*I *350:start I *D sky130_osu_ring_oscillator_mpr2xa_8_b0r1
*I *351:start I *D sky130_osu_ring_oscillator_mpr2ya_8_b0r1
*I *352:start I *D sky130_osu_ring_oscillator_mpr2aa_8_b0r2
*I *338:start I *D sky130_osu_ring_oscillator_mpr2at_8_b0r2
*I *339:start I *D sky130_osu_ring_oscillator_mpr2ca_8_b0r2
*I *340:start I *D sky130_osu_ring_oscillator_mpr2ct_8_b0r2
*I *341:start I *D sky130_osu_ring_oscillator_mpr2ea_8_b0r2
*I *342:start I *D sky130_osu_ring_oscillator_mpr2et_8_b0r2
*I *343:start I *D sky130_osu_ring_oscillator_mpr2xa_8_b0r2
*I *344:start I *D sky130_osu_ring_oscillator_mpr2ya_8_b0r2
*CAP
1 io_in[5] 0.000886356
2 *337:start 0.000573029
3 *345:start 0.000556554
4 *346:start 0.000506263
5 *347:start 0.000509298
6 *348:start 0.000501245
7 *349:start 0.000519269
8 *350:start 0.000583434
9 *351:start 0.000566959
10 *352:start 0.000509298
11 *338:start 0.000533142
12 *339:start 0.000587936
13 *340:start 0.000559155
14 *341:start 0.000560889
15 *342:start 0.000562407
16 *343:start 0.000549617
17 *344:start 0.00056248
18 *63:211 0.00460907
19 *63:199 0.00877274
20 *63:186 0.00882442
21 *63:173 0.00878303
22 *63:161 0.00877725
23 *63:149 0.00888867
24 *63:135 0.00895336
25 *63:121 0.00880299
26 *63:116 0
27 *63:109 0.00874618
28 *63:95 0.00876703
29 *63:77 0.00882182
30 *63:65 0.00883518
31 *63:53 0.00883691
32 *63:41 0.00885248
33 *63:29 0.00576368
34 *63:17 0.00362015
35 *63:15 0.00412332
36 *63:13 0.0630358
37 *63:11 0.0639221
*RES
1 io_in[5] *63:11 6.91823 
2 *63:11 *63:13 1089.27 
3 *63:13 *63:15 2 
4 *63:15 *63:17 55.44 
5 *63:17 *344:start 11.9675 
6 *63:15 *63:29 19.23 
7 *63:29 *343:start 11.4275 
8 *63:29 *63:41 75.33 
9 *63:41 *342:start 11.6488 
10 *63:41 *63:53 75.075 
11 *63:53 *341:start 11.6225 
12 *63:53 *63:65 75.075 
13 *63:65 *340:start 11.5925 
14 *63:65 *63:77 75.075 
15 *63:77 *339:start 12.9125 
16 *63:77 *63:95 74.31 
17 *63:95 *338:start 11.2475 
18 *63:95 *63:109 75.075 
19 *63:109 *352:start 10.73 
20 *352:start *63:116 0.113077 
21 *63:109 *63:121 74.31 
22 *63:121 *351:start 11.7275 
23 *63:121 *63:135 74.82 
24 *63:135 *350:start 12.0125 
25 *63:135 *63:149 76.35 
26 *63:149 *349:start 10.9025 
27 *63:149 *63:161 75.075 
28 *63:161 *348:start 10.8725 
29 *63:161 *63:173 75.075 
30 *63:173 *347:start 10.73 
31 *63:173 *63:186 75.075 
32 *63:186 *346:start 10.73 
33 *63:186 *63:199 75.84 
34 *63:199 *345:start 11.5475 
35 *63:199 *63:211 73.29 
36 *63:211 *337:start 11.8325 
*END

*D_NET *64 0.103049
*CONN
*P io_in[6] I
*I *335:select[0] I *D mux16x1_project
*I *334:select[0] I *D mux16x1_project
*I *333:select[0] I *D mux16x1_project
*I *332:select[0] I *D mux16x1_project
*I *336:select[0] I *D mux16x1_project
*CAP
1 io_in[6] 0.000726364
2 *335:select[0] 7.89038e-05
3 *334:select[0] 7.89038e-05
4 *333:select[0] 7.89038e-05
5 *332:select[0] 0.00011691
6 *336:select[0] 0.000449248
7 *64:59 0.00392148
8 *64:57 0.00384836
9 *64:55 0.00449752
10 *64:53 0.00606746
11 *64:51 0.00361685
12 *64:45 0.00681336
13 *64:43 0.00606516
14 *64:41 0.00333969
15 *64:35 0.00709007
16 *64:33 0.00610712
17 *64:29 0.00701075
18 *64:27 0.00687832
19 *64:15 0.0146922
20 *64:9 0.0170986
21 *64:7 0.00447245
22 *64:15 *336:select[1] 0
23 *64:15 *336:select[2] 0
*RES
1 io_in[6] *64:7 2.58747 
2 *64:7 *64:9 67.935 
3 *64:9 *64:15 38.6783 
4 *64:15 *336:select[0] 8.1675 
5 *64:15 *64:27 16.215 
6 *64:27 *64:29 108.78 
7 *64:29 *64:33 18.69 
8 *64:33 *64:35 90.99 
9 *64:35 *64:41 37.92 
10 *64:41 *64:43 22.935 
11 *64:43 *64:45 85.95 
12 *64:45 *64:51 37.92 
13 *64:51 *64:53 27.975 
14 *64:53 *64:55 80.91 
15 *64:55 *64:57 0.795 
16 *64:57 *64:59 69.24 
17 *64:59 *332:select[0] 2.1225 
18 *64:53 *333:select[0] 1.4325 
19 *64:43 *334:select[0] 1.4325 
20 *64:33 *335:select[0] 1.4325 
*END

*D_NET *65 0.0992432
*CONN
*P io_in[7] I
*I *336:select[1] I *D mux16x1_project
*I *335:select[1] I *D mux16x1_project
*I *332:select[1] I *D mux16x1_project
*I *333:select[1] I *D mux16x1_project
*I *334:select[1] I *D mux16x1_project
*CAP
1 io_in[7] 0.00148695
2 *336:select[1] 0.00885098
3 *335:select[1] 9.10709e-05
4 *332:select[1] 0.0081538
5 *333:select[1] 0.000436302
6 *334:select[1] 5.83572e-05
7 *65:32 0.017813
8 *65:21 0.0177991
9 *65:15 0.00877461
10 *65:13 0.0216543
11 *65:11 0.0141246
12 *65:13 *335:select[2] 0
13 *64:15 *336:select[1] 0
*RES
1 io_in[7] *65:11 16.5107 
2 *65:11 *65:13 35.435 
3 *65:13 *65:15 0.416733 
4 *65:15 *65:21 25.3837 
5 *65:21 *334:select[1] 1.1254 
6 *65:21 *65:32 26.9116 
7 *65:32 *333:select[1] 7.8079 
8 *65:32 *332:select[1] 24.9362 
9 *65:15 *335:select[1] 2.0825 
10 *65:13 *336:select[1] 36.0662 
*END

*D_NET *66 0.0975231
*CONN
*P io_in[8] I
*I *332:select[2] I *D mux16x1_project
*I *333:select[2] I *D mux16x1_project
*I *334:select[2] I *D mux16x1_project
*I *335:select[2] I *D mux16x1_project
*I *336:select[2] I *D mux16x1_project
*CAP
1 io_in[8] 0.0126775
2 *332:select[2] 0.00815382
3 *333:select[2] 0.000436304