*SPEF "ieee 1481-1999"
*DESIGN "user_project_wrapper"
*DATE "11:11:11 Fri 11 11, 1111"
*VENDOR "OpenRCX"
*PROGRAM "Parallel Extraction"
*VERSION "1.0"
*DESIGN_FLOW "NAME_SCOPE LOCAL" "PIN_CAP NONE"
*DIVIDER /
*DELIMITER :
*BUS_DELIMITER []
*T_UNIT 1 NS
*C_UNIT 1 PF
*R_UNIT 1 OHM
*L_UNIT 1 HENRY

*NAME_MAP
*1 analog_io[0]
*2 analog_io[10]
*3 analog_io[11]
*4 analog_io[12]
*5 analog_io[13]
*6 analog_io[14]
*7 analog_io[15]
*8 analog_io[16]
*9 analog_io[17]
*10 analog_io[18]
*11 analog_io[19]
*12 analog_io[1]
*13 analog_io[20]
*14 analog_io[21]
*15 analog_io[22]
*16 analog_io[23]
*17 analog_io[24]
*18 analog_io[25]
*19 analog_io[26]
*20 analog_io[27]
*21 analog_io[28]
*22 analog_io[2]
*23 analog_io[3]
*24 analog_io[4]
*25 analog_io[5]
*26 analog_io[6]
*27 analog_io[7]
*28 analog_io[8]
*29 analog_io[9]
*30 io_in[0]
*31 io_in[10]
*32 io_in[11]
*33 io_in[12]
*34 io_in[13]
*35 io_in[14]
*36 io_in[15]
*37 io_in[16]
*38 io_in[17]
*39 io_in[18]
*40 io_in[19]
*41 io_in[1]
*42 io_in[20]
*43 io_in[21]
*44 io_in[22]
*45 io_in[23]
*46 io_in[24]
*47 io_in[25]
*48 io_in[26]
*49 io_in[27]
*50 io_in[28]
*51 io_in[29]
*52 io_in[2]
*53 io_in[30]
*54 io_in[31]
*55 io_in[32]
*56 io_in[33]
*57 io_in[34]
*58 io_in[35]
*59 io_in[36]
*60 io_in[37]
*61 io_in[3]
*62 io_in[4]
*63 io_in[5]
*64 io_in[6]
*65 io_in[7]
*66 io_in[8]
*67 io_in[9]
*68 io_oeb[0]
*69 one_
*70 zero_
*71 io_oeb[16]
*72 io_oeb[17]
*73 io_oeb[18]
*74 io_oeb[19]
*75 io_oeb[1]
*76 io_oeb[20]
*77 io_oeb[21]
*78 io_oeb[22]
*79 io_oeb[23]
*80 io_oeb[24]
*81 io_oeb[25]
*82 io_oeb[26]
*83 io_oeb[27]
*84 io_oeb[28]
*85 io_oeb[29]
*86 io_oeb[2]
*87 io_oeb[30]
*88 io_oeb[31]
*89 io_oeb[32]
*90 io_oeb[33]
*91 io_oeb[34]
*92 io_oeb[35]
*93 io_oeb[36]
*94 io_oeb[37]
*95 io_oeb[3]
*96 io_oeb[4]
*97 io_out[0]
*98 io_out[10]
*99 io_out[11]
*100 io_out[12]
*101 io_out[13]
*102 io_out[14]
*103 io_out[15]
*104 io_out[16]
*105 io_out[17]
*106 io_out[18]
*107 io_out[19]
*108 io_out[1]
*109 io_out[20]
*110 io_out[21]
*111 io_out[22]
*112 io_out[23]
*113 io_out[24]
*114 io_out[25]
*115 io_out[26]
*116 io_out[27]
*117 io_out[28]
*118 io_out[29]
*119 io_out[2]
*120 io_out[30]
*121 io_out[31]
*122 io_out[32]
*123 io_out[33]
*124 io_out[34]
*125 io_out[35]
*126 io_out[36]
*127 io_out[37]
*128 io_out[3]
*129 io_out[4]
*130 io_out[5]
*131 io_out[6]
*132 io_out[7]
*133 io_out[8]
*134 io_out[9]
*135 la_data_in[0]
*136 la_data_in[100]
*137 la_data_in[101]
*138 la_data_in[102]
*139 la_data_in[103]
*140 la_data_in[104]
*141 la_data_in[105]
*142 la_data_in[106]
*143 la_data_in[107]
*144 la_data_in[108]
*145 la_data_in[109]
*146 la_data_in[10]
*147 la_data_in[110]
*148 la_data_in[111]
*149 la_data_in[112]
*150 la_data_in[113]
*151 la_data_in[114]
*152 la_data_in[115]
*153 la_data_in[116]
*154 la_data_in[117]
*155 la_data_in[118]
*156 la_data_in[119]
*157 la_data_in[11]
*158 la_data_in[120]
*159 la_data_in[121]
*160 la_data_in[122]
*161 la_data_in[123]
*162 la_data_in[124]
*163 la_data_in[125]
*164 la_data_in[126]
*165 la_data_in[127]
*166 la_data_in[12]
*167 la_data_in[13]
*168 la_data_in[14]
*169 la_data_in[15]
*170 la_data_in[16]
*171 la_data_in[17]
*172 la_data_in[18]
*173 la_data_in[19]
*174 la_data_in[1]
*175 la_data_in[20]
*176 la_data_in[21]
*177 la_data_in[22]
*178 la_data_in[23]
*179 la_data_in[24]
*180 la_data_in[25]
*181 la_data_in[26]
*182 la_data_in[27]
*183 la_data_in[28]
*184 la_data_in[29]
*185 la_data_in[2]
*186 la_data_in[30]
*187 la_data_in[31]
*188 la_data_in[32]
*189 la_data_in[33]
*190 la_data_in[34]
*191 la_data_in[35]
*192 la_data_in[36]
*193 la_data_in[37]
*194 la_data_in[38]
*195 la_data_in[39]
*196 la_data_in[3]
*197 la_data_in[40]
*198 la_data_in[41]
*199 la_data_in[42]
*200 la_data_in[43]
*201 la_data_in[44]
*202 la_data_in[45]
*203 la_data_in[46]
*204 la_data_in[47]
*205 la_data_in[48]
*206 la_data_in[49]
*207 la_data_in[4]
*208 la_data_in[50]
*209 la_data_in[51]
*210 la_data_in[52]
*211 la_data_in[53]
*212 la_data_in[54]
*213 la_data_in[55]
*214 la_data_in[56]
*215 la_data_in[57]
*216 la_data_in[58]
*217 la_data_in[59]
*218 la_data_in[5]
*219 la_data_in[60]
*220 la_data_in[61]
*221 la_data_in[62]
*222 la_data_in[63]
*223 la_data_in[64]
*224 la_data_in[65]
*225 la_data_in[66]
*226 la_data_in[67]
*227 la_data_in[68]
*228 la_data_in[69]
*229 la_data_in[6]
*230 la_data_in[70]
*231 la_data_in[71]
*232 la_data_in[72]
*233 la_data_in[73]
*234 la_data_in[74]
*235 la_data_in[75]
*236 la_data_in[76]
*237 la_data_in[77]
*238 la_data_in[78]
*239 la_data_in[79]
*240 la_data_in[7]
*241 la_data_in[80]
*242 la_data_in[81]
*243 la_data_in[82]
*244 la_data_in[83]
*245 la_data_in[84]
*246 la_data_in[85]
*247 la_data_in[86]
*248 la_data_in[87]
*249 la_data_in[88]
*250 la_data_in[89]
*251 la_data_in[8]
*252 la_data_in[90]
*253 la_data_in[91]
*254 la_data_in[92]
*255 la_data_in[93]
*256 la_data_in[94]
*257 la_data_in[95]
*258 la_data_in[96]
*259 la_data_in[97]
*260 la_data_in[98]
*261 la_data_in[99]
*262 la_data_in[9]
*263 la_data_out[0]
*264 la_data_out[100]
*265 la_data_out[101]
*266 la_data_out[102]
*267 la_data_out[103]
*268 la_data_out[104]
*269 la_data_out[105]
*270 la_data_out[106]
*271 la_data_out[107]
*272 la_data_out[108]
*273 la_data_out[109]
*274 la_data_out[10]
*275 la_data_out[110]
*276 la_data_out[111]
*277 la_data_out[112]
*278 la_data_out[113]
*279 la_data_out[114]
*280 la_data_out[115]
*281 la_data_out[116]
*282 la_data_out[117]
*283 la_data_out[118]
*284 la_data_out[119]
*285 la_data_out[11]
*286 la_data_out[120]
*287 la_data_out[121]
*288 la_data_out[122]
*289 la_data_out[123]
*290 la_data_out[124]
*291 la_data_out[125]
*292 la_data_out[126]
*293 la_data_out[127]
*294 la_data_out[12]
*295 la_data_out[13]
*296 la_data_out[14]
*297 la_data_out[15]
*298 la_data_out[16]
*299 la_data_out[17]
*300 la_data_out[18]
*301 la_data_out[19]
*302 la_data_out[1]
*303 la_data_out[20]
*304 la_data_out[21]
*305 la_data_out[22]
*306 la_data_out[23]
*307 la_data_out[24]
*308 la_data_out[25]
*309 la_data_out[26]
*310 la_data_out[27]
*311 la_data_out[28]
*312 la_data_out[29]
*313 la_data_out[2]
*314 la_data_out[30]
*315 la_data_out[31]
*316 la_data_out[32]
*317 la_data_out[33]
*318 la_data_out[34]
*319 la_data_out[35]
*320 la_data_out[36]
*321 la_data_out[37]
*322 la_data_out[38]
*323 la_data_out[39]
*324 la_data_out[3]
*325 la_data_out[40]
*326 la_data_out[41]
*327 la_data_out[42]
*328 la_data_out[43]
*329 la_data_out[44]
*330 la_data_out[45]
*331 la_data_out[46]
*332 la_data_out[47]
*333 la_data_out[48]
*334 la_data_out[49]
*335 la_data_out[4]
*336 la_data_out[50]
*337 la_data_out[51]
*338 la_data_out[52]
*339 la_data_out[53]
*340 la_data_out[54]
*341 la_data_out[55]
*342 la_data_out[56]
*343 la_data_out[57]
*344 la_data_out[58]
*345 la_data_out[59]
*346 la_data_out[5]
*347 la_data_out[60]
*348 la_data_out[61]
*349 la_data_out[62]
*350 la_data_out[63]
*351 la_data_out[64]
*352 la_data_out[65]
*353 la_data_out[66]
*354 la_data_out[67]
*355 la_data_out[68]
*356 la_data_out[69]
*357 la_data_out[6]
*358 la_data_out[70]
*359 la_data_out[71]
*360 la_data_out[72]
*361 la_data_out[73]
*362 la_data_out[74]
*363 la_data_out[75]
*364 la_data_out[76]
*365 la_data_out[77]
*366 la_data_out[78]
*367 la_data_out[79]
*368 la_data_out[7]
*369 la_data_out[80]
*370 la_data_out[81]
*371 la_data_out[82]
*372 la_data_out[83]
*373 la_data_out[84]
*374 la_data_out[85]
*375 la_data_out[86]
*376 la_data_out[87]
*377 la_data_out[88]
*378 la_data_out[89]
*379 la_data_out[8]
*380 la_data_out[90]
*381 la_data_out[91]
*382 la_data_out[92]
*383 la_data_out[93]
*384 la_data_out[94]
*385 la_data_out[95]
*386 la_data_out[96]
*387 la_data_out[97]
*388 la_data_out[98]
*389 la_data_out[99]
*390 la_data_out[9]
*391 la_oenb[0]
*392 la_oenb[100]
*393 la_oenb[101]
*394 la_oenb[102]
*395 la_oenb[103]
*396 la_oenb[104]
*397 la_oenb[105]
*398 la_oenb[106]
*399 la_oenb[107]
*400 la_oenb[108]
*401 la_oenb[109]
*402 la_oenb[10]
*403 la_oenb[110]
*404 la_oenb[111]
*405 la_oenb[112]
*406 la_oenb[113]
*407 la_oenb[114]
*408 la_oenb[115]
*409 la_oenb[116]
*410 la_oenb[117]
*411 la_oenb[118]
*412 la_oenb[119]
*413 la_oenb[11]
*414 la_oenb[120]
*415 la_oenb[121]
*416 la_oenb[122]
*417 la_oenb[123]
*418 la_oenb[124]
*419 la_oenb[125]
*420 la_oenb[126]
*421 la_oenb[127]
*422 la_oenb[12]
*423 la_oenb[13]
*424 la_oenb[14]
*425 la_oenb[15]
*426 la_oenb[16]
*427 la_oenb[17]
*428 la_oenb[18]
*429 la_oenb[19]
*430 la_oenb[1]
*431 la_oenb[20]
*432 la_oenb[21]
*433 la_oenb[22]
*434 la_oenb[23]
*435 la_oenb[24]
*436 la_oenb[25]
*437 la_oenb[26]
*438 la_oenb[27]
*439 la_oenb[28]
*440 la_oenb[29]
*441 la_oenb[2]
*442 la_oenb[30]
*443 la_oenb[31]
*444 la_oenb[32]
*445 la_oenb[33]
*446 la_oenb[34]
*447 la_oenb[35]
*448 la_oenb[36]
*449 la_oenb[37]
*450 la_oenb[38]
*451 la_oenb[39]
*452 la_oenb[3]
*453 la_oenb[40]
*454 la_oenb[41]
*455 la_oenb[42]
*456 la_oenb[43]
*457 la_oenb[44]
*458 la_oenb[45]
*459 la_oenb[46]
*460 la_oenb[47]
*461 la_oenb[48]
*462 la_oenb[49]
*463 la_oenb[4]
*464 la_oenb[50]
*465 la_oenb[51]
*466 la_oenb[52]
*467 la_oenb[53]
*468 la_oenb[54]
*469 la_oenb[55]
*470 la_oenb[56]
*471 la_oenb[57]
*472 la_oenb[58]
*473 la_oenb[59]
*474 la_oenb[5]
*475 la_oenb[60]
*476 la_oenb[61]
*477 la_oenb[62]
*478 la_oenb[63]
*479 la_oenb[64]
*480 la_oenb[65]
*481 la_oenb[66]
*482 la_oenb[67]
*483 la_oenb[68]
*484 la_oenb[69]
*485 la_oenb[6]
*486 la_oenb[70]
*487 la_oenb[71]
*488 la_oenb[72]
*489 la_oenb[73]
*490 la_oenb[74]
*491 la_oenb[75]
*492 la_oenb[76]
*493 la_oenb[77]
*494 la_oenb[78]
*495 la_oenb[79]
*496 la_oenb[7]
*497 la_oenb[80]
*498 la_oenb[81]
*499 la_oenb[82]
*500 la_oenb[83]
*501 la_oenb[84]
*502 la_oenb[85]
*503 la_oenb[86]
*504 la_oenb[87]
*505 la_oenb[88]
*506 la_oenb[89]
*507 la_oenb[8]
*508 la_oenb[90]
*509 la_oenb[91]
*510 la_oenb[92]
*511 la_oenb[93]
*512 la_oenb[94]
*513 la_oenb[95]
*514 la_oenb[96]
*515 la_oenb[97]
*516 la_oenb[98]
*517 la_oenb[99]
*518 la_oenb[9]
*519 user_clock2
*520 user_irq[0]
*521 user_irq[1]
*522 user_irq[2]
*531 wb_clk_i
*532 wb_rst_i
*533 wbs_ack_o
*534 wbs_adr_i[0]
*535 wbs_adr_i[10]
*536 wbs_adr_i[11]
*537 wbs_adr_i[12]
*538 wbs_adr_i[13]
*539 wbs_adr_i[14]
*540 wbs_adr_i[15]
*541 wbs_adr_i[16]
*542 wbs_adr_i[17]
*543 wbs_adr_i[18]
*544 wbs_adr_i[19]
*545 wbs_adr_i[1]
*546 wbs_adr_i[20]
*547 wbs_adr_i[21]
*548 wbs_adr_i[22]
*549 wbs_adr_i[23]
*550 wbs_adr_i[24]
*551 wbs_adr_i[25]
*552 wbs_adr_i[26]
*553 wbs_adr_i[27]
*554 wbs_adr_i[28]
*555 wbs_adr_i[29]
*556 wbs_adr_i[2]
*557 wbs_adr_i[30]
*558 wbs_adr_i[31]
*559 wbs_adr_i[3]
*560 wbs_adr_i[4]
*561 wbs_adr_i[5]
*562 wbs_adr_i[6]
*563 wbs_adr_i[7]
*564 wbs_adr_i[8]
*565 wbs_adr_i[9]
*566 wbs_cyc_i
*567 wbs_dat_i[0]
*568 wbs_dat_i[10]
*569 wbs_dat_i[11]
*570 wbs_dat_i[12]
*571 wbs_dat_i[13]
*572 wbs_dat_i[14]
*573 wbs_dat_i[15]
*574 wbs_dat_i[16]
*575 wbs_dat_i[17]
*576 wbs_dat_i[18]
*577 wbs_dat_i[19]
*578 wbs_dat_i[1]
*579 wbs_dat_i[20]
*580 wbs_dat_i[21]
*581 wbs_dat_i[22]
*582 wbs_dat_i[23]
*583 wbs_dat_i[24]
*584 wbs_dat_i[25]
*585 wbs_dat_i[26]
*586 wbs_dat_i[27]
*587 wbs_dat_i[28]
*588 wbs_dat_i[29]
*589 wbs_dat_i[2]
*590 wbs_dat_i[30]
*591 wbs_dat_i[31]
*592 wbs_dat_i[3]
*593 wbs_dat_i[4]
*594 wbs_dat_i[5]
*595 wbs_dat_i[6]
*596 wbs_dat_i[7]
*597 wbs_dat_i[8]
*598 wbs_dat_i[9]
*599 wbs_dat_o[0]
*600 wbs_dat_o[10]
*601 wbs_dat_o[11]
*602 wbs_dat_o[12]
*603 wbs_dat_o[13]
*604 wbs_dat_o[14]
*605 wbs_dat_o[15]
*606 wbs_dat_o[16]
*607 wbs_dat_o[17]
*608 wbs_dat_o[18]
*609 wbs_dat_o[19]
*610 wbs_dat_o[1]
*611 wbs_dat_o[20]
*612 wbs_dat_o[21]
*613 wbs_dat_o[22]
*614 wbs_dat_o[23]
*615 wbs_dat_o[24]
*616 wbs_dat_o[25]
*617 wbs_dat_o[26]
*618 wbs_dat_o[27]
*619 wbs_dat_o[28]
*620 wbs_dat_o[29]
*621 wbs_dat_o[2]
*622 wbs_dat_o[30]
*623 wbs_dat_o[31]
*624 wbs_dat_o[3]
*625 wbs_dat_o[4]
*626 wbs_dat_o[5]
*627 wbs_dat_o[6]
*628 wbs_dat_o[7]
*629 wbs_dat_o[8]
*630 wbs_dat_o[9]
*631 wbs_sel_i[0]
*632 wbs_sel_i[1]
*633 wbs_sel_i[2]
*634 wbs_sel_i[3]
*635 wbs_stb_i
*636 wbs_we_i
*637 x1\[0\]
*638 x1\[1\]
*639 x1\[2\]
*640 x1\[3\]
*641 x1\[4\]
*642 x1\[5\]
*643 x1\[6\]
*644 x1\[7\]
*645 x1\[8\]
*646 x1\[9\]
*647 x2\[0\]
*648 x2\[1\]
*649 x2\[2\]
*650 x2\[3\]
*651 x2\[4\]
*652 x2\[5\]
*653 x2\[6\]
*654 x2\[7\]
*655 x2\[8\]
*656 x2\[9\]
*657 x3\[0\]
*658 x3\[1\]
*659 x3\[2\]
*660 x3\[3\]
*661 x3\[4\]
*662 x3\[5\]
*663 x3\[6\]
*664 x3\[7\]
*665 x3\[8\]
*666 x3\[9\]
*667 x4\[0\]
*668 x4\[1\]
*669 x4\[2\]
*670 x4\[3\]
*671 x4\[4\]
*672 x4\[5\]
*673 x4\[6\]
*674 x4\[7\]
*675 x4\[8\]
*676 x4\[9\]
*677 x5\[0\]
*678 x5\[1\]
*679 x5\[2\]
*680 x5\[3\]
*681 x5\[4\]
*682 x5\[5\]
*683 x5\[6\]
*684 x5\[7\]
*685 x5\[8\]
*686 x5\[9\]
*687 TIE_ONE_one_
*688 TIE_ZERO_zero_
*689 mprj1
*690 mprj2
*691 mprj3
*692 mprj4
*693 mprj5
*694 ro1
*695 ro10
*696 ro2
*697 ro3
*698 ro4
*699 ro5
*700 ro6
*701 ro7
*702 ro8
*703 ro9

*PORTS
analog_io[0] I
analog_io[10] I
analog_io[11] I
analog_io[12] I
analog_io[13] I
analog_io[14] I
analog_io[15] I
analog_io[16] I
analog_io[17] I
analog_io[18] I
analog_io[19] I
analog_io[1] I
analog_io[20] I
analog_io[21] I
analog_io[22] I
analog_io[23] I
analog_io[24] I
analog_io[25] I
analog_io[26] I
analog_io[27] I
analog_io[28] I
analog_io[2] I
analog_io[3] I
analog_io[4] I
analog_io[5] I
analog_io[6] I
analog_io[7] I
analog_io[8] I
analog_io[9] I
io_in[0] I
io_in[10] I
io_in[11] I
io_in[12] I
io_in[13] I
io_in[14] I
io_in[15] I
io_in[16] I
io_in[17] I
io_in[18] I
io_in[19] I
io_in[1] I
io_in[20] I
io_in[21] I
io_in[22] I
io_in[23] I
io_in[24] I
io_in[25] I
io_in[26] I
io_in[27] I
io_in[28] I
io_in[29] I
io_in[2] I
io_in[30] I
io_in[31] I
io_in[32] I
io_in[33] I
io_in[34] I
io_in[35] I
io_in[36] I
io_in[37] I
io_in[3] I
io_in[4] I
io_in[5] I
io_in[6] I
io_in[7] I
io_in[8] I
io_in[9] I
io_oeb[0] O
io_oeb[10] O
io_oeb[11] O
io_oeb[12] O
io_oeb[13] O
io_oeb[14] O
io_oeb[15] O
io_oeb[16] O
io_oeb[17] O
io_oeb[18] O
io_oeb[19] O
io_oeb[1] O
io_oeb[20] O
io_oeb[21] O
io_oeb[22] O
io_oeb[23] O
io_oeb[24] O
io_oeb[25] O
io_oeb[26] O
io_oeb[27] O
io_oeb[28] O
io_oeb[29] O
io_oeb[2] O
io_oeb[30] O
io_oeb[31] O
io_oeb[32] O
io_oeb[33] O
io_oeb[34] O
io_oeb[35] O
io_oeb[36] O
io_oeb[37] O
io_oeb[3] O
io_oeb[4] O
io_oeb[5] O
io_oeb[6] O
io_oeb[7] O
io_oeb[8] O
io_oeb[9] O
io_out[0] O
io_out[10] O
io_out[11] O
io_out[12] O
io_out[13] O
io_out[14] O
io_out[15] O
io_out[16] O
io_out[17] O
io_out[18] O
io_out[19] O
io_out[1] O
io_out[20] O
io_out[21] O
io_out[22] O
io_out[23] O
io_out[24] O
io_out[25] O
io_out[26] O
io_out[27] O
io_out[28] O
io_out[29] O
io_out[2] O
io_out[30] O
io_out[31] O
io_out[32] O
io_out[33] O
io_out[34] O
io_out[35] O
io_out[36] O
io_out[37] O
io_out[3] O
io_out[4] O
io_out[5] O
io_out[6] O
io_out[7] O
io_out[8] O
io_out[9] O
la_data_in[0] I
la_data_in[100] I
la_data_in[101] I
la_data_in[102] I
la_data_in[103] I
la_data_in[104] I
la_data_in[105] I
la_data_in[106] I
la_data_in[107] I
la_data_in[108] I
la_data_in[109] I
la_data_in[10] I
la_data_in[110] I
la_data_in[111] I
la_data_in[112] I
la_data_in[113] I
la_data_in[114] I
la_data_in[115] I
la_data_in[116] I
la_data_in[117] I
la_data_in[118] I
la_data_in[119] I
la_data_in[11] I
la_data_in[120] I
la_data_in[121] I
la_data_in[122] I
la_data_in[123] I
la_data_in[124] I
la_data_in[125] I
la_data_in[126] I
la_data_in[127] I
la_data_in[12] I
la_data_in[13] I
la_data_in[14] I
la_data_in[15] I
la_data_in[16] I
la_data_in[17] I
la_data_in[18] I
la_data_in[19] I
la_data_in[1] I
la_data_in[20] I
la_data_in[21] I
la_data_in[22] I
la_data_in[23] I
la_data_in[24] I
la_data_in[25] I
la_data_in[26] I
la_data_in[27] I
la_data_in[28] I
la_data_in[29] I
la_data_in[2] I
la_data_in[30] I
la_data_in[31] I
la_data_in[32] I
la_data_in[33] I
la_data_in[34] I
la_data_in[35] I
la_data_in[36] I
la_data_in[37] I
la_data_in[38] I
la_data_in[39] I
la_data_in[3] I
la_data_in[40] I
la_data_in[41] I
la_data_in[42] I
la_data_in[43] I
la_data_in[44] I
la_data_in[45] I
la_data_in[46] I
la_data_in[47] I
la_data_in[48] I
la_data_in[49] I
la_data_in[4] I
la_data_in[50] I
la_data_in[51] I
la_data_in[52] I
la_data_in[53] I
la_data_in[54] I
la_data_in[55] I
la_data_in[56] I
la_data_in[57] I
la_data_in[58] I
la_data_in[59] I
la_data_in[5] I
la_data_in[60] I
la_data_in[61] I
la_data_in[62] I
la_data_in[63] I
la_data_in[64] I
la_data_in[65] I
la_data_in[66] I
la_data_in[67] I
la_data_in[68] I
la_data_in[69] I
la_data_in[6] I
la_data_in[70] I
la_data_in[71] I
la_data_in[72] I
la_data_in[73] I
la_data_in[74] I
la_data_in[75] I
la_data_in[76] I
la_data_in[77] I
la_data_in[78] I
la_data_in[79] I
la_data_in[7] I
la_data_in[80] I
la_data_in[81] I
la_data_in[82] I
la_data_in[83] I
la_data_in[84] I
la_data_in[85] I
la_data_in[86] I
la_data_in[87] I
la_data_in[88] I
la_data_in[89] I
la_data_in[8] I
la_data_in[90] I
la_data_in[91] I
la_data_in[92] I
la_data_in[93] I
la_data_in[94] I
la_data_in[95] I
la_data_in[96] I
la_data_in[97] I
la_data_in[98] I
la_data_in[99] I
la_data_in[9] I
la_data_out[0] O
la_data_out[100] O
la_data_out[101] O
la_data_out[102] O
la_data_out[103] O
la_data_out[104] O
la_data_out[105] O
la_data_out[106] O
la_data_out[107] O
la_data_out[108] O
la_data_out[109] O
la_data_out[10] O
la_data_out[110] O
la_data_out[111] O
la_data_out[112] O
la_data_out[113] O
la_data_out[114] O
la_data_out[115] O
la_data_out[116] O
la_data_out[117] O
la_data_out[118] O
la_data_out[119] O
la_data_out[11] O
la_data_out[120] O
la_data_out[121] O
la_data_out[122] O
la_data_out[123] O
la_data_out[124] O
la_data_out[125] O
la_data_out[126] O
la_data_out[127] O
la_data_out[12] O
la_data_out[13] O
la_data_out[14] O
la_data_out[15] O
la_data_out[16] O
la_data_out[17] O
la_data_out[18] O
la_data_out[19] O
la_data_out[1] O
la_data_out[20] O
la_data_out[21] O
la_data_out[22] O
la_data_out[23] O
la_data_out[24] O
la_data_out[25] O
la_data_out[26] O
la_data_out[27] O
la_data_out[28] O
la_data_out[29] O
la_data_out[2] O
la_data_out[30] O
la_data_out[31] O
la_data_out[32] O
la_data_out[33] O
la_data_out[34] O
la_data_out[35] O
la_data_out[36] O
la_data_out[37] O
la_data_out[38] O
la_data_out[39] O
la_data_out[3] O
la_data_out[40] O
la_data_out[41] O
la_data_out[42] O
la_data_out[43] O
la_data_out[44] O
la_data_out[45] O
la_data_out[46] O
la_data_out[47] O
la_data_out[48] O
la_data_out[49] O
la_data_out[4] O
la_data_out[50] O
la_data_out[51] O
la_data_out[52] O
la_data_out[53] O
la_data_out[54] O
la_data_out[55] O
la_data_out[56] O
la_data_out[57] O
la_data_out[58] O
la_data_out[59] O
la_data_out[5] O
la_data_out[60] O
la_data_out[61] O
la_data_out[62] O
la_data_out[63] O
la_data_out[64] O
la_data_out[65] O
la_data_out[66] O
la_data_out[67] O
la_data_out[68] O
la_data_out[69] O
la_data_out[6] O
la_data_out[70] O
la_data_out[71] O
la_data_out[72] O
la_data_out[73] O
la_data_out[74] O
la_data_out[75] O
la_data_out[76] O
la_data_out[77] O
la_data_out[78] O
la_data_out[79] O
la_data_out[7] O
la_data_out[80] O
la_data_out[81] O
la_data_out[82] O
la_data_out[83] O
la_data_out[84] O
la_data_out[85] O
la_data_out[86] O
la_data_out[87] O
la_data_out[88] O
la_data_out[89] O
la_data_out[8] O
la_data_out[90] O
la_data_out[91] O
la_data_out[92] O
la_data_out[93] O
la_data_out[94] O
la_data_out[95] O
la_data_out[96] O
la_data_out[97] O
la_data_out[98] O
la_data_out[99] O
la_data_out[9] O
la_oenb[0] I
la_oenb[100] I
la_oenb[101] I
la_oenb[102] I
la_oenb[103] I
la_oenb[104] I
la_oenb[105] I
la_oenb[106] I
la_oenb[107] I
la_oenb[108] I
la_oenb[109] I
la_oenb[10] I
la_oenb[110] I
la_oenb[111] I
la_oenb[112] I
la_oenb[113] I
la_oenb[114] I
la_oenb[115] I
la_oenb[116] I
la_oenb[117] I
la_oenb[118] I
la_oenb[119] I
la_oenb[11] I
la_oenb[120] I
la_oenb[121] I
la_oenb[122] I
la_oenb[123] I
la_oenb[124] I
la_oenb[125] I
la_oenb[126] I
la_oenb[127] I
la_oenb[12] I
la_oenb[13] I
la_oenb[14] I
la_oenb[15] I
la_oenb[16] I
la_oenb[17] I
la_oenb[18] I
la_oenb[19] I
la_oenb[1] I
la_oenb[20] I
la_oenb[21] I
la_oenb[22] I
la_oenb[23] I
la_oenb[24] I
la_oenb[25] I
la_oenb[26] I
la_oenb[27] I
la_oenb[28] I
la_oenb[29] I
la_oenb[2] I
la_oenb[30] I
la_oenb[31] I
la_oenb[32] I
la_oenb[33] I
la_oenb[34] I
la_oenb[35] I
la_oenb[36] I
la_oenb[37] I
la_oenb[38] I
la_oenb[39] I
la_oenb[3] I
la_oenb[40] I
la_oenb[41] I
la_oenb[42] I
la_oenb[43] I
la_oenb[44] I
la_oenb[45] I
la_oenb[46] I
la_oenb[47] I
la_oenb[48] I
la_oenb[49] I
la_oenb[4] I
la_oenb[50] I
la_oenb[51] I
la_oenb[52] I
la_oenb[53] I
la_oenb[54] I
la_oenb[55] I
la_oenb[56] I
la_oenb[57] I
la_oenb[58] I
la_oenb[59] I
la_oenb[5] I
la_oenb[60] I
la_oenb[61] I
la_oenb[62] I
la_oenb[63] I
la_oenb[64] I
la_oenb[65] I
la_oenb[66] I
la_oenb[67] I
la_oenb[68] I
la_oenb[69] I
la_oenb[6] I
la_oenb[70] I
la_oenb[71] I
la_oenb[72] I
la_oenb[73] I
la_oenb[74] I
la_oenb[75] I
la_oenb[76] I
la_oenb[77] I
la_oenb[78] I
la_oenb[79] I
la_oenb[7] I
la_oenb[80] I
la_oenb[81] I
la_oenb[82] I
la_oenb[83] I
la_oenb[84] I
la_oenb[85] I
la_oenb[86] I
la_oenb[87] I
la_oenb[88] I
la_oenb[89] I
la_oenb[8] I
la_oenb[90] I
la_oenb[91] I
la_oenb[92] I
la_oenb[93] I
la_oenb[94] I
la_oenb[95] I
la_oenb[96] I
la_oenb[97] I
la_oenb[98] I
la_oenb[99] I
la_oenb[9] I
user_clock2 I
user_irq[0] O
user_irq[1] O
user_irq[2] O
wb_clk_i I
wb_rst_i I
wbs_ack_o O
wbs_adr_i[0] I
wbs_adr_i[10] I
wbs_adr_i[11] I
wbs_adr_i[12] I
wbs_adr_i[13] I
wbs_adr_i[14] I
wbs_adr_i[15] I
wbs_adr_i[16] I
wbs_adr_i[17] I
wbs_adr_i[18] I
wbs_adr_i[19] I
wbs_adr_i[1] I
wbs_adr_i[20] I
wbs_adr_i[21] I
wbs_adr_i[22] I
wbs_adr_i[23] I
wbs_adr_i[24] I
wbs_adr_i[25] I
wbs_adr_i[26] I
wbs_adr_i[27] I
wbs_adr_i[28] I
wbs_adr_i[29] I
wbs_adr_i[2] I
wbs_adr_i[30] I
wbs_adr_i[31] I
wbs_adr_i[3] I
wbs_adr_i[4] I
wbs_adr_i[5] I
wbs_adr_i[6] I
wbs_adr_i[7] I
wbs_adr_i[8] I
wbs_adr_i[9] I
wbs_cyc_i I
wbs_dat_i[0] I
wbs_dat_i[10] I
wbs_dat_i[11] I
wbs_dat_i[12] I
wbs_dat_i[13] I
wbs_dat_i[14] I
wbs_dat_i[15] I
wbs_dat_i[16] I
wbs_dat_i[17] I
wbs_dat_i[18] I
wbs_dat_i[19] I
wbs_dat_i[1] I
wbs_dat_i[20] I
wbs_dat_i[21] I
wbs_dat_i[22] I
wbs_dat_i[23] I
wbs_dat_i[24] I
wbs_dat_i[25] I
wbs_dat_i[26] I
wbs_dat_i[27] I
wbs_dat_i[28] I
wbs_dat_i[29] I
wbs_dat_i[2] I
wbs_dat_i[30] I
wbs_dat_i[31] I
wbs_dat_i[3] I
wbs_dat_i[4] I
wbs_dat_i[5] I
wbs_dat_i[6] I
wbs_dat_i[7] I
wbs_dat_i[8] I
wbs_dat_i[9] I
wbs_dat_o[0] O
wbs_dat_o[10] O
wbs_dat_o[11] O
wbs_dat_o[12] O
wbs_dat_o[13] O
wbs_dat_o[14] O
wbs_dat_o[15] O
wbs_dat_o[16] O
wbs_dat_o[17] O
wbs_dat_o[18] O
wbs_dat_o[19] O
wbs_dat_o[1] O
wbs_dat_o[20] O
wbs_dat_o[21] O
wbs_dat_o[22] O
wbs_dat_o[23] O
wbs_dat_o[24] O
wbs_dat_o[25] O
wbs_dat_o[26] O
wbs_dat_o[27] O
wbs_dat_o[28] O
wbs_dat_o[29] O
wbs_dat_o[2] O
wbs_dat_o[30] O
wbs_dat_o[31] O
wbs_dat_o[3] O
wbs_dat_o[4] O
wbs_dat_o[5] O
wbs_dat_o[6] O
wbs_dat_o[7] O
wbs_dat_o[8] O
wbs_dat_o[9] O
wbs_sel_i[0] I
wbs_sel_i[1] I
wbs_sel_i[2] I
wbs_sel_i[3] I
wbs_stb_i I
wbs_we_i I

*D_NET *31 0.147875
*CONN
*P io_in[10] I
*I *694:start I *D sky130_osu_ring_oscillator_mpr2ca_8_b0r1
*I *696:start I *D sky130_osu_ring_oscillator_mpr2ct_8_b0r1
*I *697:start I *D sky130_osu_ring_oscillator_mpr2ea_8_b0r1
*I *699:start I *D sky130_osu_ring_oscillator_mpr2xa_8_b0r1
*I *700:start I *D sky130_osu_ring_oscillator_mpr2ca_8_b0r2
*I *701:start I *D sky130_osu_ring_oscillator_mpr2ct_8_b0r2
*I *702:start I *D sky130_osu_ring_oscillator_mpr2ea_8_b0r2
*I *695:start I *D sky130_osu_ring_oscillator_mpr2xa_8_b0r2
*I *703:start I *D sky130_osu_ring_oscillator_mpr2et_8_b0r2
*I *698:start I *D sky130_osu_ring_oscillator_mpr2et_8_b0r1
*CAP
1 io_in[10] 0.00192843
2 *694:start 8.9295e-05
3 *696:start 0
4 *697:start 0.000116809
5 *699:start 0.000511997
6 *700:start 2.04138e-05
7 *701:start 0.000122573
8 *702:start 0.00011897
9 *695:start 0.000568115
10 *703:start 0.0001777
11 *698:start 0.000195087
12 *31:97 0.00106215
13 *31:91 0.00450937
14 *31:89 0.00409018
15 *31:72 0.00445277
16 *31:70 0.00796016
17 *31:68 0.0080821
18 *31:66 0.00459587
19 *31:62 0.000965434
20 *31:54 0.00303255
21 *31:52 0.00294361
22 *31:48 0.00871517
23 *31:46 0.00756678
24 *31:31 0.00474601
25 *31:29 0.00948123
26 *31:27 0.00488928
27 *31:23 0.002311
28 *31:21 0.00421333
29 *31:17 0.00283485
30 *31:13 0.0271774
31 *31:11 0.026502
32 *31:9 0.00192843
33 *31:9 *35:9 0.00196617
*RES
1 io_in[10] *31:9 36.1332 
2 *31:9 *31:11 15 
3 *31:11 *31:13 561.854 
4 *31:13 *31:17 29.935 
5 *31:17 *31:21 46.6796 
6 *31:21 *31:23 48.4921 
7 *31:23 *31:27 3.87357 
8 *31:27 *31:29 107.393 
9 *31:29 *31:31 108.605 
10 *31:31 *698:start 17.0507 
11 *698:start *31:46 16.6364 
12 *31:46 *31:48 168.469 
13 *31:48 *31:52 16.3539 
14 *31:52 *31:54 50.17 
15 *31:54 *31:62 33.3011 
16 *31:62 *31:66 17.5271 
17 *31:66 *31:68 104.379 
18 *31:68 *31:70 79.3771 
19 *31:70 *31:72 101.914 
20 *31:72 *703:start 17.0507 
21 *703:start *31:89 16.4552 
22 *31:89 *31:91 90.2936 
23 *31:91 *31:97 40.15 
24 *31:97 *695:start 27.8066 
25 *31:70 *702:start 17.3407 
26 *31:68 *701:start 17.4184 
27 *31:62 *700:start 0.440179 
28 *31:48 *699:start 25.6679 
29 *31:29 *697:start 17.2941 
30 *31:23 *696:start 15 
31 *31:17 *694:start 16.7089 
*END

*D_NET *32 0.154067
*CONN
*P io_in[11] I
*I *690:select[0] I *D mux16x1_project
*I *691:select[0] I *D mux16x1_project
*I *692:select[0] I *D mux16x1_project
*I *693:select[0] I *D mux16x1_project
*I *689:select[0] I *D mux16x1_project
*CAP
1 io_in[11] 0.000988077
2 *690:select[0] 8.66535e-05
3 *691:select[0] 0.000107523
4 *692:select[0] 8.66535e-05
5 *693:select[0] 8.66535e-05
6 *689:select[0] 0.000599586
7 *32:57 0.00334591
8 *32:55 0.00328648
9 *32:53 0.00484094
10 *32:51 0.00484094
11 *32:49 0.0018052
12 *32:45 0.00389586
13 *32:43 0.00223175
14 *32:41 0.00411927
15 *32:39 0.00655918
16 *32:37 0.00238683
17 *32:35 0.00222008
18 *32:33 0.00222008
19 *32:31 0.00349624
20 *32:29 0.00349624
21 *32:27 0.00310229
22 *32:25 0.0030365
23 *32:23 0.00524551
24 *32:21 0.00532582
25 *32:13 0.00666896
26 *32:9 0.0111222
27 *32:7 0.0059125
28 *32:9 *33:9 0.0136087
29 *32:9 *69:70 0.0148615
30 *32:9 *69:80 0.0107424
31 *32:13 *33:13 0.00538117
32 *32:13 *34:15 0.0183596
*RES
1 io_in[11] *32:7 10.5611 
2 *32:7 *32:9 329.046 
3 *32:9 *32:13 46.8677 
4 *32:13 *689:select[0] 18.6368 
5 *689:select[0] *32:21 2.93107 
6 *32:21 *32:23 121.634 
7 *32:23 *32:25 1.09786 
8 *32:25 *32:27 68.1086 
9 *32:27 *32:29 0.621429 
10 *32:29 *32:31 82.2564 
11 *32:31 *32:33 0.621429 
12 *32:33 *32:35 50.17 
13 *32:35 *32:37 0.621429 
14 *32:37 *32:39 53.94 
15 *32:39 *32:41 96.425 
16 *32:41 *32:43 0.621429 
17 *32:43 *32:45 50.17 
18 *32:45 *32:49 38.7564 
19 *32:49 *32:51 0.621429 
20 *32:51 *32:53 112.706 
21 *32:53 *32:55 0.621429 
22 *32:55 *32:57 74.2193 
23 *32:57 *693:select[0] 1.97821 
24 *32:49 *692:select[0] 1.97821 
25 *32:39 *691:select[0] 2.45464 
26 *32:27 *690:select[0] 1.97821 
*END

*D_NET *33 0.171946
*CONN
*P io_in[12] I
*I *690:select[1] I *D mux16x1_project
*I *691:select[1] I *D mux16x1_project
*I *692:select[1] I *D mux16x1_project
*I *693:select[1] I *D mux16x1_project
*I *689:select[1] I *D mux16x1_project
*CAP
1 io_in[12] 0.00106405
2 *690:select[1] 6.52685e-05
3 *691:select[1] 7.22088e-05
4 *692:select[1] 0.00049526
5 *693:select[1] 0.000484125
6 *689:select[1] 0.0102276
7 *33:43 0.0103155
8 *33:35 0.0194699
9 *33:33 0.0189298
10 *33:31 0.0196578
11 *33:13 0.00922362
12 *33:9 0.0190503
13 *33:7 0.0112401
14 *690:select[1] *67:13 1.45436e-05
15 *33:9 *34:9 0.0249338
16 *33:9 *69:70 7.48354e-05
17 *33:9 *69:80 0.00388867
18 *33:9 *69:90 0.00374834
19 *32:9 *33:9 0.0136087
20 *32:13 *33:13 0.00538117
*RES
1 io_in[12] *33:7 10.7328 
2 *33:7 *33:9 606.535 
3 *33:9 *33:13 44.3776 
4 *33:13 *689:select[1] 15.8196 
5 *689:select[1] *33:31 49.8781 
6 *33:31 *33:33 33.8203 
7 *33:33 *33:35 31.4085 
8 *33:35 *33:43 49.6243 
9 *33:43 *693:select[1] 10.6368 
10 *33:35 *692:select[1] 25.413 
11 *33:33 *691:select[1] 16.1848 
12 *33:31 *690:select[1] 16.1848 
*END

*D_NET *34 0.221445
*CONN
*P io_in[13] I
*I *690:select[2] I *D mux16x1_project
*I *691:select[2] I *D mux16x1_project
*I *692:select[2] I *D mux16x1_project
*I *693:select[2] I *D mux16x1_project
*I *689:select[2] I *D mux16x1_project
*CAP
1 io_in[13] 0.00110009
2 *690:select[2] 7.77925e-05
3 *691:select[2] 7.22483e-05
4 *692:select[2] 0.000495268
5 *693:select[2] 0.000484125
6 *689:select[2] 0.000623352
7 *34:39 0.0103155
8 *34:31 0.0194699
9 *34:29 0.0189298
10 *34:27 0.0196026
11 *34:25 0.00989772
12 *34:15 0.00387558
13 *34:9 0.0210395
14 *34:7 0.0188001
15 *690:select[2] *67:13 6.07327e-06
16 *34:9 *35:9 0.0362957
17 *34:9 *69:90 0
18 *34:9 *69:100 0
19 *34:15 *35:15 0.017066
20 *32:13 *34:15 0.0183596
21 *33:9 *34:9 0.0249338
*RES
1 io_in[13] *34:7 10.9045 
2 *34:7 *34:9 878.389 
3 *34:9 *34:15 49.8875 
4 *34:15 *689:select[2] 11.3411 
5 *689:select[2] *34:25 16.1848 
6 *34:25 *34:27 34.0741 
7 *34:27 *34:29 33.8203 
8 *34:29 *34:31 31.4085 
9 *34:31 *34:39 49.6243 
10 *34:39 *693:select[2] 10.6368 
11 *34:31 *692:select[2] 25.413 
12 *34:29 *691:select[2] 16.1848 
13 *34:27 *690:select[2] 16.6479 
*END

*D_NET *35 0.215451
*CONN
*P io_in[14] I
*I *693:select[3] I *D mux16x1_project
*I *692:select[3] I *D mux16x1_project
*I *691:select[3] I *D mux16x1_project
*I *690:select[3] I *D mux16x1_project
*I *689:select[3] I *D mux16x1_project
*CAP
1 io_in[14] 0.00115355
2 *693:select[3] 0.00123581
3 *692:select[3] 8.67925e-05
4 *691:select[3] 8.51884e-05
5 *690:select[3] 8.67925e-05
6 *689:select[3] 0.000812468
7 *35:83 0.00787864
8 *35:81 0.00728047
9 *35:71 0.00245823
10 *35:67 0.00617399
11 *35:65 0.00656081
12 *35:55 0.00244481
13 *35:51 0.00688183
14 *35:49 0.00813648
15 *35:39 0.00248083
16 *35:35 0.00785447
17 *35:33 0.00720112
18 *35:15 0.00646614
19 *35:9 0.0432766
20 *35:7 0.0385295
21 *689:select[3] *103:67 0
22 *35:9 *69:100 0
23 *35:9 *69:110 0
24 *35:33 *103:67 3.46569e-05
25 *35:35 *103:65 0.00250662
26 *35:35 *103:67 0.000497158
27 *31:9 *35:9 0.00196617
28 *34:9 *35:9 0.0362957
29 *34:15 *35:15 0.017066
*RES
1 io_in[14] *35:7 11.0763 
2 *35:7 *35:9 1153.06 
3 *35:9 *35:15 47.3973 
4 *35:15 *689:select[3] 12.0454 
5 *689:select[3] *35:33 35.1682 
6 *35:33 *35:35 172.364 
7 *35:35 *35:39 20.1343 
8 *35:39 *690:select[3] 1.97821 
9 *35:39 *35:49 33.8057 
10 *35:49 *35:51 150.22 
11 *35:51 *35:55 5.48929 
12 *35:55 *691:select[3] 1.97821 