*SPEF "ieee 1481-1999"
*DESIGN "user_project_wrapper"
*DATE "11:11:11 Fri 11 11, 1111"
*VENDOR "OpenRCX"
*PROGRAM "Parallel Extraction"
*VERSION "1.0"
*DESIGN_FLOW "NAME_SCOPE LOCAL" "PIN_CAP NONE"
*DIVIDER /
*DELIMITER :
*BUS_DELIMITER []
*T_UNIT 1 NS
*C_UNIT 1 PF
*R_UNIT 1 OHM
*L_UNIT 1 HENRY

*NAME_MAP
*1 analog_io[0]
*2 analog_io[10]
*3 analog_io[11]
*4 analog_io[12]
*5 analog_io[13]
*6 analog_io[14]
*7 analog_io[15]
*8 analog_io[16]
*9 analog_io[17]
*10 analog_io[18]
*11 analog_io[19]
*12 analog_io[1]
*13 analog_io[20]
*14 analog_io[21]
*15 analog_io[22]
*16 analog_io[23]
*17 analog_io[24]
*18 analog_io[25]
*19 analog_io[26]
*20 analog_io[27]
*21 analog_io[28]
*22 analog_io[2]
*23 analog_io[3]
*24 analog_io[4]
*25 analog_io[5]
*26 analog_io[6]
*27 analog_io[7]
*28 analog_io[8]
*29 analog_io[9]
*30 io_in[0]
*31 io_in[10]
*32 io_in[11]
*33 io_in[12]
*34 io_in[13]
*35 io_in[14]
*36 io_in[15]
*37 io_in[16]
*38 io_in[17]
*39 io_in[18]
*40 io_in[19]
*41 io_in[1]
*42 io_in[20]
*43 io_in[21]
*44 io_in[22]
*45 io_in[23]
*46 io_in[24]
*47 io_in[25]
*48 io_in[26]
*49 io_in[27]
*50 io_in[28]
*51 io_in[29]
*52 io_in[2]
*53 io_in[30]
*54 io_in[31]
*55 io_in[32]
*56 io_in[33]
*57 io_in[34]
*58 io_in[35]
*59 io_in[36]
*60 io_in[37]
*61 io_in[3]
*62 io_in[4]
*63 io_in[5]
*64 io_in[6]
*65 io_in[7]
*66 io_in[8]
*67 io_in[9]
*68 io_oeb[0]
*69 io_oeb[10]
*70 io_oeb[11]
*71 io_oeb[12]
*72 io_oeb[13]
*73 io_oeb[14]
*74 io_oeb[15]
*75 io_oeb[16]
*76 io_oeb[17]
*77 io_oeb[18]
*78 io_oeb[19]
*79 io_oeb[1]
*80 io_oeb[20]
*81 io_oeb[21]
*82 io_oeb[22]
*83 io_oeb[23]
*84 io_oeb[24]
*85 io_oeb[25]
*86 io_oeb[26]
*87 io_oeb[27]
*88 io_oeb[28]
*89 io_oeb[29]
*90 io_oeb[2]
*91 io_oeb[30]
*92 io_oeb[31]
*93 io_oeb[32]
*94 io_oeb[33]
*95 io_oeb[34]
*96 io_oeb[35]
*97 io_oeb[36]
*98 io_oeb[37]
*99 io_oeb[3]
*100 io_oeb[4]
*101 io_oeb[5]
*102 io_oeb[6]
*103 io_oeb[7]
*104 io_oeb[8]
*105 io_oeb[9]
*106 io_out[0]
*107 io_out[10]
*108 io_out[11]
*109 io_out[12]
*110 io_out[13]
*111 io_out[14]
*112 io_out[15]
*113 io_out[16]
*114 io_out[17]
*115 io_out[18]
*116 io_out[19]
*117 io_out[1]
*118 io_out[20]
*119 io_out[21]
*120 io_out[22]
*121 io_out[23]
*122 io_out[24]
*123 io_out[25]
*124 io_out[26]
*125 io_out[27]
*126 io_out[28]
*127 io_out[29]
*128 io_out[2]
*129 io_out[30]
*130 io_out[31]
*131 io_out[32]
*132 io_out[33]
*133 io_out[34]
*134 io_out[35]
*135 io_out[36]
*136 io_out[37]
*137 io_out[3]
*138 io_out[4]
*139 io_out[5]
*140 io_out[6]
*141 io_out[7]
*142 io_out[8]
*143 io_out[9]
*146 wb_clk_i
*147 wb_rst_i
*148 wbs_ack_o
*149 wbs_adr_i[0]
*150 wbs_adr_i[10]
*151 wbs_adr_i[11]
*152 wbs_adr_i[12]
*153 wbs_adr_i[13]
*154 wbs_adr_i[14]
*155 wbs_adr_i[15]
*156 wbs_adr_i[16]
*157 wbs_adr_i[17]
*158 wbs_adr_i[18]
*159 wbs_adr_i[19]
*160 wbs_adr_i[1]
*161 wbs_adr_i[20]
*162 wbs_adr_i[21]
*163 wbs_adr_i[22]
*164 wbs_adr_i[23]
*165 wbs_adr_i[24]
*166 wbs_adr_i[25]
*167 wbs_adr_i[26]
*168 wbs_adr_i[27]
*169 wbs_adr_i[28]
*170 wbs_adr_i[29]
*171 wbs_adr_i[2]
*172 wbs_adr_i[30]
*173 wbs_adr_i[31]
*174 wbs_adr_i[3]
*175 wbs_adr_i[4]
*176 wbs_adr_i[5]
*177 wbs_adr_i[6]
*178 wbs_adr_i[7]
*179 wbs_adr_i[8]
*180 wbs_adr_i[9]
*181 wbs_cyc_i
*182 wbs_dat_i[0]
*183 wbs_dat_i[10]
*184 wbs_dat_i[11]
*185 wbs_dat_i[12]
*186 wbs_dat_i[13]
*187 wbs_dat_i[14]
*188 wbs_dat_i[15]
*189 wbs_dat_i[16]
*190 wbs_dat_i[17]
*191 wbs_dat_i[18]
*192 wbs_dat_i[19]
*193 wbs_dat_i[1]
*194 wbs_dat_i[20]
*195 wbs_dat_i[21]
*196 wbs_dat_i[22]
*197 wbs_dat_i[23]
*198 wbs_dat_i[24]
*199 wbs_dat_i[25]
*200 wbs_dat_i[26]
*201 wbs_dat_i[27]
*202 wbs_dat_i[28]
*203 wbs_dat_i[29]
*204 wbs_dat_i[2]
*205 wbs_dat_i[30]
*206 wbs_dat_i[31]
*207 wbs_dat_i[3]
*208 wbs_dat_i[4]
*209 wbs_dat_i[5]
*210 wbs_dat_i[6]
*211 wbs_dat_i[7]
*212 wbs_dat_i[8]
*213 wbs_dat_i[9]
*214 wbs_dat_o[0]
*215 wbs_dat_o[10]
*216 wbs_dat_o[11]
*217 wbs_dat_o[12]
*218 wbs_dat_o[13]
*219 wbs_dat_o[14]
*220 wbs_dat_o[15]
*221 wbs_dat_o[16]
*222 wbs_dat_o[17]
*223 wbs_dat_o[18]
*224 wbs_dat_o[19]
*225 wbs_dat_o[1]
*226 wbs_dat_o[20]
*227 wbs_dat_o[21]
*228 wbs_dat_o[22]
*229 wbs_dat_o[23]
*230 wbs_dat_o[24]
*231 wbs_dat_o[25]
*232 wbs_dat_o[26]
*233 wbs_dat_o[27]
*234 wbs_dat_o[28]
*235 wbs_dat_o[29]
*236 wbs_dat_o[2]
*237 wbs_dat_o[30]
*238 wbs_dat_o[31]
*239 wbs_dat_o[3]
*240 wbs_dat_o[4]
*241 wbs_dat_o[5]
*242 wbs_dat_o[6]
*243 wbs_dat_o[7]
*244 wbs_dat_o[8]
*245 wbs_dat_o[9]
*246 wbs_sel_i[0]
*247 wbs_sel_i[1]
*248 wbs_sel_i[2]
*249 wbs_sel_i[3]
*250 wbs_stb_i
*251 wbs_we_i
*252 x1\[0\]
*253 x1\[10\]
*254 x1\[11\]
*255 x1\[12\]
*256 x1\[13\]
*257 x1\[14\]
*258 x1\[15\]
*259 x1\[1\]
*260 x1\[2\]
*261 x1\[3\]
*262 x1\[4\]
*263 x1\[5\]
*264 x1\[6\]
*265 x1\[7\]
*266 x1\[8\]
*267 x1\[9\]
*268 x2\[0\]
*269 x2\[10\]
*270 x2\[11\]
*271 x2\[12\]
*272 x2\[13\]
*273 x2\[14\]
*274 x2\[15\]
*275 x2\[1\]
*276 x2\[2\]
*277 x2\[3\]
*278 x2\[4\]
*279 x2\[5\]
*280 x2\[6\]
*281 x2\[7\]
*282 x2\[8\]
*283 x2\[9\]
*284 x3\[0\]
*285 x3\[10\]
*286 x3\[11\]
*287 x3\[12\]
*288 x3\[13\]
*289 x3\[14\]
*290 x3\[15\]
*291 x3\[1\]
*292 x3\[2\]
*293 x3\[3\]
*294 x3\[4\]
*295 x3\[5\]
*296 x3\[6\]
*297 x3\[7\]
*298 x3\[8\]
*299 x3\[9\]
*300 x4\[0\]
*301 x4\[10\]
*302 x4\[11\]
*303 x4\[12\]
*304 x4\[13\]
*305 x4\[14\]
*306 x4\[15\]
*307 x4\[1\]
*308 x4\[2\]
*309 x4\[3\]
*310 x4\[4\]
*311 x4\[5\]
*312 x4\[6\]
*313 x4\[7\]
*314 x4\[8\]
*315 x4\[9\]
*316 x5\[0\]
*317 x5\[10\]
*318 x5\[11\]
*319 x5\[12\]
*320 x5\[13\]
*321 x5\[14\]
*322 x5\[15\]
*323 x5\[1\]
*324 x5\[2\]
*325 x5\[3\]
*326 x5\[4\]
*327 x5\[5\]
*328 x5\[6\]
*329 x5\[7\]
*330 x5\[8\]
*331 x5\[9\]
*332 mprj1
*333 mprj2
*334 mprj3
*335 mprj4
*336 mprj5
*337 ro1
*338 ro10
*339 ro11
*340 ro12
*341 ro13
*342 ro14
*343 ro15
*344 ro16
*345 ro2
*346 ro3
*347 ro4
*348 ro5
*349 ro6
*350 ro7
*351 ro8
*352 ro9

*PORTS
analog_io[0] I
analog_io[10] I
analog_io[11] I
analog_io[12] I
analog_io[13] I
analog_io[14] I
analog_io[15] I
analog_io[16] I
analog_io[17] I
analog_io[18] I
analog_io[19] I
analog_io[1] I
analog_io[20] I
analog_io[21] I
analog_io[22] I
analog_io[23] I
analog_io[24] I
analog_io[25] I
analog_io[26] I
analog_io[27] I
analog_io[28] I
analog_io[2] I
analog_io[3] I
analog_io[4] I
analog_io[5] I
analog_io[6] I
analog_io[7] I
analog_io[8] I
analog_io[9] I
io_in[0] I
io_in[10] I
io_in[11] I
io_in[12] I
io_in[13] I
io_in[14] I
io_in[15] I
io_in[16] I
io_in[17] I
io_in[18] I
io_in[19] I
io_in[1] I
io_in[20] I
io_in[21] I
io_in[22] I
io_in[23] I
io_in[24] I
io_in[25] I
io_in[26] I
io_in[27] I
io_in[28] I
io_in[29] I
io_in[2] I
io_in[30] I
io_in[31] I
io_in[32] I
io_in[33] I
io_in[34] I
io_in[35] I
io_in[36] I
io_in[37] I
io_in[3] I
io_in[4] I
io_in[5] I
io_in[6] I
io_in[7] I
io_in[8] I
io_in[9] I
io_oeb[0] O
io_oeb[10] O
io_oeb[11] O
io_oeb[12] O
io_oeb[13] O
io_oeb[14] O
io_oeb[15] O
io_oeb[16] O
io_oeb[17] O
io_oeb[18] O
io_oeb[19] O
io_oeb[1] O
io_oeb[20] O
io_oeb[21] O
io_oeb[22] O
io_oeb[23] O
io_oeb[24] O
io_oeb[25] O
io_oeb[26] O
io_oeb[27] O
io_oeb[28] O
io_oeb[29] O
io_oeb[2] O
io_oeb[30] O
io_oeb[31] O
io_oeb[32] O
io_oeb[33] O
io_oeb[34] O
io_oeb[35] O
io_oeb[36] O
io_oeb[37] O
io_oeb[3] O
io_oeb[4] O
io_oeb[5] O
io_oeb[6] O
io_oeb[7] O
io_oeb[8] O
io_oeb[9] O
io_out[0] O
io_out[10] O
io_out[11] O
io_out[12] O
io_out[13] O
io_out[14] O
io_out[15] O
io_out[16] O
io_out[17] O
io_out[18] O
io_out[19] O
io_out[1] O
io_out[20] O
io_out[21] O
io_out[22] O
io_out[23] O
io_out[24] O
io_out[25] O
io_out[26] O
io_out[27] O
io_out[28] O
io_out[29] O
io_out[2] O
io_out[30] O
io_out[31] O
io_out[32] O
io_out[33] O
io_out[34] O
io_out[35] O
io_out[36] O
io_out[37] O
io_out[3] O
io_out[4] O
io_out[5] O
io_out[6] O
io_out[7] O
io_out[8] O
io_out[9] O
wb_clk_i I
wb_rst_i I
wbs_ack_o O
wbs_adr_i[0] I
wbs_adr_i[10] I
wbs_adr_i[11] I
wbs_adr_i[12] I
wbs_adr_i[13] I
wbs_adr_i[14] I
wbs_adr_i[15] I
wbs_adr_i[16] I
wbs_adr_i[17] I
wbs_adr_i[18] I
wbs_adr_i[19] I
wbs_adr_i[1] I
wbs_adr_i[20] I
wbs_adr_i[21] I
wbs_adr_i[22] I
wbs_adr_i[23] I
wbs_adr_i[24] I
wbs_adr_i[25] I
wbs_adr_i[26] I
wbs_adr_i[27] I
wbs_adr_i[28] I
wbs_adr_i[29] I
wbs_adr_i[2] I
wbs_adr_i[30] I
wbs_adr_i[31] I
wbs_adr_i[3] I
wbs_adr_i[4] I
wbs_adr_i[5] I
wbs_adr_i[6] I
wbs_adr_i[7] I
wbs_adr_i[8] I
wbs_adr_i[9] I
wbs_cyc_i I
wbs_dat_i[0] I
wbs_dat_i[10] I
wbs_dat_i[11] I
wbs_dat_i[12] I
wbs_dat_i[13] I
wbs_dat_i[14] I
wbs_dat_i[15] I
wbs_dat_i[16] I
wbs_dat_i[17] I
wbs_dat_i[18] I
wbs_dat_i[19] I
wbs_dat_i[1] I
wbs_dat_i[20] I
wbs_dat_i[21] I
wbs_dat_i[22] I
wbs_dat_i[23] I
wbs_dat_i[24] I
wbs_dat_i[25] I
wbs_dat_i[26] I
wbs_dat_i[27] I
wbs_dat_i[28] I
wbs_dat_i[29] I
wbs_dat_i[2] I
wbs_dat_i[30] I
wbs_dat_i[31] I
wbs_dat_i[3] I
wbs_dat_i[4] I
wbs_dat_i[5] I
wbs_dat_i[6] I
wbs_dat_i[7] I
wbs_dat_i[8] I
wbs_dat_i[9] I
wbs_dat_o[0] O
wbs_dat_o[10] O
wbs_dat_o[11] O
wbs_dat_o[12] O
wbs_dat_o[13] O
wbs_dat_o[14] O
wbs_dat_o[15] O
wbs_dat_o[16] O
wbs_dat_o[17] O
wbs_dat_o[18] O
wbs_dat_o[19] O
wbs_dat_o[1] O
wbs_dat_o[20] O
wbs_dat_o[21] O
wbs_dat_o[22] O
wbs_dat_o[23] O
wbs_dat_o[24] O
wbs_dat_o[25] O
wbs_dat_o[26] O
wbs_dat_o[27] O
wbs_dat_o[28] O
wbs_dat_o[29] O
wbs_dat_o[2] O
wbs_dat_o[30] O
wbs_dat_o[31] O
wbs_dat_o[3] O
wbs_dat_o[4] O
wbs_dat_o[5] O
wbs_dat_o[6] O
wbs_dat_o[7] O
wbs_dat_o[8] O
wbs_dat_o[9] O
wbs_sel_i[0] I
wbs_sel_i[1] I
wbs_sel_i[2] I
wbs_sel_i[3] I
wbs_stb_i I
wbs_we_i I

*D_NET *30 0.403443
*CONN
*P io_in[0] I
*I *344:s1 I *D sky130_osu_ring_oscillator_mpr2ya_8_b0r2
*I *350:s1 I *D sky130_osu_ring_oscillator_mpr2xa_8_b0r1
*I *347:s1 I *D sky130_osu_ring_oscillator_mpr2ct_8_b0r1
*I *345:s1 I *D sky130_osu_ring_oscillator_mpr2at_8_b0r1
*I *337:s1 I *D sky130_osu_ring_oscillator_mpr2aa_8_b0r1
*I *346:s1 I *D sky130_osu_ring_oscillator_mpr2ca_8_b0r1
*I *348:s1 I *D sky130_osu_ring_oscillator_mpr2ea_8_b0r1
*I *349:s1 I *D sky130_osu_ring_oscillator_mpr2et_8_b0r1
*I *351:s1 I *D sky130_osu_ring_oscillator_mpr2ya_8_b0r1
*I *352:s1 I *D sky130_osu_ring_oscillator_mpr2aa_8_b0r2
*I *338:s1 I *D sky130_osu_ring_oscillator_mpr2at_8_b0r2
*I *339:s1 I *D sky130_osu_ring_oscillator_mpr2ca_8_b0r2
*I *340:s1 I *D sky130_osu_ring_oscillator_mpr2ct_8_b0r2
*I *341:s1 I *D sky130_osu_ring_oscillator_mpr2ea_8_b0r2
*I *342:s1 I *D sky130_osu_ring_oscillator_mpr2et_8_b0r2
*I *343:s1 I *D sky130_osu_ring_oscillator_mpr2xa_8_b0r2
*CAP
1 io_in[0] 0.0642872
2 *344:s1 0.000611187
3 *350:s1 0.000367524
4 *347:s1 0.000150443
5 *345:s1 0.000487709
6 *337:s1 0.000587342
7 *346:s1 0.00019545
8 *348:s1 0.00038316
9 *349:s1 0.000531286
10 *351:s1 0.000313468
11 *352:s1 0.000574021
12 *338:s1 0.00175946
13 *339:s1 0.000251986
14 *340:s1 0.000133169
15 *341:s1 0.000454378
16 *342:s1 0.000505756
17 *343:s1 0.000390023
18 *30:248 0.00317931
19 *30:246 0.00259197
20 *30:244 0.000895164
21 *30:236 0.00313075
22 *30:222 0.00564003
23 *30:220 0.00311604
24 *30:216 0.00493241
25 *30:201 0.00726959
26 *30:199 0.00305064
27 *30:178 0.00400734
28 *30:176 0.00300244
29 *30:172 0.000445341
30 *30:170 0.00285032
31 *30:159 0.00625158
32 *30:149 0.00650456
33 *30:147 0.00332579
34 *30:143 0.000758367
35 *30:127 0.00411822
36 *30:110 0.00508567
37 *30:98 0.00524368
38 *30:78 0.00402247
39 *30:72 0.00289058
40 *30:70 0.00311597
41 *30:53 0.00405407
42 *30:42 0.00458293
43 *30:40 0.00168653
44 *30:23 0.0031189
45 *30:21 0.0030713
46 *30:13 0.00317566
47 *30:9 0.0392098
48 *30:7 0.0371261
49 *30:5 0.0642872
50 *338:s1 *267:11 0
51 *341:s1 *341:start 2.20608e-05
52 *342:s1 *342:start 8.35106e-05
53 *343:s1 *343:start 3.6901e-05
54 *346:s1 *346:start 2.57027e-05
55 *349:s1 *349:start 8.35106e-05
56 *351:s1 *351:start 1.62224e-06
57 *30:9 *62:33 0.00107632
58 *30:13 *41:13 0.00440025
59 *30:13 *41:21 0.00157617
60 *30:21 *41:21 0.000456035
61 *30:23 *41:23 0.00587386
62 *30:40 *41:23 0.00026747
63 *30:42 *41:23 0.000206909
64 *30:42 *41:51 0.00119356
65 *30:42 *41:53 0.00359955
66 *30:42 *52:75 0.00357419
67 *30:53 *41:53 0.000658774
68 *30:53 *41:80 0.00627352
69 *30:53 *52:75 0.000403036
70 *30:70 *41:80 0.000605046
71 *30:70 *41:110 0.000784914
72 *30:72 *41:110 0.00469134
73 *30:110 *41:147 0.00346873
74 *30:147 *338:start 1.08758e-05
75 *30:149 *41:175 0.000746116
76 *30:149 *41:199 0.00585207
77 *30:159 *41:199 0.000869587
78 *30:159 *41:227 0.00629001
79 *30:170 *41:227 0.000473921
80 *30:170 *41:255 0.00625037
81 *30:176 *350:start 8.52928e-06
82 *30:178 *41:255 0.000270325
83 *30:178 *41:274 0.00295536
84 *30:178 *41:278 0.00164918
85 *30:199 *349:s2 0
86 *30:199 *41:278 0.000728933
87 *30:199 *41:307 0.000413127
88 *30:201 *41:307 0.00215578
89 *30:201 *41:315 0.00214181
90 *30:216 *41:315 0.000230878
91 *30:222 *41:387 0.00605062
92 *30:236 *41:387 0.000944675
93 *30:236 *41:410 0.00539114
94 *30:244 *345:start 2.45047e-05
95 *30:244 *41:410 0.000215327
96 *30:244 *41:416 0.000105367
97 *30:248 *41:416 0.000176528
98 *30:248 *41:436 0.00240074
*RES
1 io_in[0] *30:5 172.517 
2 *30:5 *30:7 0.5 
3 *30:7 *30:9 653.925 
4 *30:9 *30:13 9.33627 
5 *30:13 *30:21 2.04027 
6 *30:21 *30:23 69.465 
7 *30:23 *343:s1 10.4663 
8 *30:23 *30:40 3.87 
9 *30:40 *30:42 76.5675 
10 *30:42 *342:s1 12.6 
11 *30:42 *30:53 77.625 
12 *30:53 *341:s1 13.8337 
13 *30:53 *30:70 28.0425 
14 *30:70 *30:72 54.18 
15 *30:72 *30:78 2.9608 
16 *30:78 *340:s1 4.295 
17 *30:78 *30:98 55.185 
18 *30:98 *30:110 30.8809 
19 *30:110 *339:s1 1.1802 
20 *30:110 *30:127 48.215 
21 *30:127 *338:s1 27.2437 
22 *338:s1 *30:143 6.84875 
23 *30:143 *30:147 10.385 
24 *30:147 *30:149 76.095 
25 *30:149 *352:s1 12.0575 
26 *30:149 *30:159 82.725 
27 *30:159 *351:s1 9.0975 
28 *30:159 *30:170 77.37 
29 *30:170 *30:172 2 
30 *30:172 *30:176 3.14 
31 *30:176 *30:178 80.43 
32 *30:178 *349:s1 13.2113 
33 *30:178 *30:199 13.9403 
34 *30:199 *30:201 66.2775 
35 *30:201 *348:s1 10.4025 
36 *30:201 *30:216 77.7525 
37 *30:216 *30:220 6.945 
38 *30:220 *30:222 72.1275 
39 *30:222 *346:s1 5.46125 
40 *30:222 *30:236 73.1625 
41 *30:236 *30:244 11.3075 
42 *30:244 *30:246 2 
43 *30:246 *30:248 65.385 
44 *30:248 *337:s1 12.0575 
45 *30:244 *345:s1 10.2063 
46 *30:216 *347:s1 4.72625 
47 *30:172 *350:s1 10.3525 
48 *30:13 *344:s1 12.2153 
*END

*D_NET *41 0.428637
*CONN
*P io_in[1] I
*I *344:s2 I *D sky130_osu_ring_oscillator_mpr2ya_8_b0r2
*I *337:s2 I *D sky130_osu_ring_oscillator_mpr2aa_8_b0r1
*I *345:s2 I *D sky130_osu_ring_oscillator_mpr2at_8_b0r1
*I *346:s2 I *D sky130_osu_ring_oscillator_mpr2ca_8_b0r1
*I *347:s2 I *D sky130_osu_ring_oscillator_mpr2ct_8_b0r1
*I *348:s2 I *D sky130_osu_ring_oscillator_mpr2ea_8_b0r1
*I *349:s2 I *D sky130_osu_ring_oscillator_mpr2et_8_b0r1
*I *350:s2 I *D sky130_osu_ring_oscillator_mpr2xa_8_b0r1
*I *351:s2 I *D sky130_osu_ring_oscillator_mpr2ya_8_b0r1
*I *352:s2 I *D sky130_osu_ring_oscillator_mpr2aa_8_b0r2
*I *338:s2 I *D sky130_osu_ring_oscillator_mpr2at_8_b0r2
*I *339:s2 I *D sky130_osu_ring_oscillator_mpr2ca_8_b0r2
*I *340:s2 I *D sky130_osu_ring_oscillator_mpr2ct_8_b0r2
*I *341:s2 I *D sky130_osu_ring_oscillator_mpr2ea_8_b0r2
*I *342:s2 I *D sky130_osu_ring_oscillator_mpr2et_8_b0r2
*I *343:s2 I *D sky130_osu_ring_oscillator_mpr2xa_8_b0r2
*CAP
1 io_in[1] 0.0568432
2 *344:s2 0.000620035
3 *337:s2 0.00184966
4 *345:s2 0.0020099
5 *346:s2 0.00176897
6 *347:s2 0.00381234
7 *348:s2 0.000324918
8 *349:s2 0.00214655
9 *350:s2 0.00135204
10 *351:s2 0.00183101
11 *352:s2 0.00189855
12 *338:s2 0.00215175
13 *339:s2 0.000430576
14 *340:s2 0.00165615
15 *341:s2 0.00191409
16 *342:s2 0.00152946
17 *343:s2 0.00165312
18 *41:436 0.00462744
19 *41:416 0.00505971
20 *41:410 0.00283324
21 *41:387 0.00733655
22 *41:385 0.00511717
23 *41:337 0.00423732
24 *41:315 0.00532658
25 *41:307 0.00418434
26 *41:278 0.00483215
27 *41:274 0.00311766
28 *41:255 0.0063751
29 *41:250 0
30 *41:227 0.00762168
31 *41:199 0.00771664
32 *41:175 0.00745709
33 *41:173 0.0055797
34 *41:147 0.00540848
35 *41:137 0.00448658
36 *41:110 0.00763201
37 *41:82 0.00525188
38 *41:80 0.00273033
39 *41:53 0.00588064
40 *41:51 0.00295404
41 *41:23 0.00572442
42 *41:21 0.00375706
43 *41:13 0.00777345
44 *41:9 0.0339559
45 *41:7 0.0277765
46 *41:5 0.0568432
47 *342:s2 *52:79 0.00274258
48 *343:s2 *52:73 0.000559009
49 *347:s2 *277:16 0
50 *349:s2 *278:7 0
51 *41:13 *344:s3 0.00168528
52 *41:13 *52:13 0.00789279
53 *30:13 *41:13 0.00440025
54 *30:13 *41:21 0.00157617
55 *30:21 *41:21 0.000456035
56 *30:23 *41:23 0.00587386
57 *30:40 *41:23 0.00026747
58 *30:42 *41:23 0.000206909
59 *30:42 *41:51 0.00119356
60 *30:42 *41:53 0.00359955
61 *30:53 *41:53 0.000658774
62 *30:53 *41:80 0.00627352
63 *30:70 *41:80 0.000605046
64 *30:70 *41:110 0.000784914
65 *30:72 *41:110 0.00469134
66 *30:110 *41:147 0.00346873
67 *30:149 *41:175 0.000746116
68 *30:149 *41:199 0.00585207
69 *30:159 *41:199 0.000869587
70 *30:159 *41:227 0.00629001
71 *30:170 *41:227 0.000473921
72 *30:170 *41:255 0.00625037
73 *30:178 *41:255 0.000270325
74 *30:178 *41:274 0.00295536
75 *30:178 *41:278 0.00164918
76 *30:199 *349:s2 0
77 *30:199 *41:278 0.000728933
78 *30:199 *41:307 0.000413127
79 *30:201 *41:307 0.00215578
80 *30:201 *41:315 0.00214181
81 *30:216 *41:315 0.000230878
82 *30:222 *41:387 0.00605062
83 *30:236 *41:387 0.000944675
84 *30:236 *41:410 0.00539114
85 *30:244 *41:410 0.000215327
86 *30:244 *41:416 0.000105367
87 *30:248 *41:416 0.000176528
88 *30:248 *41:436 0.00240074
*RES
1 io_in[1] *41:5 152.415 
2 *41:5 *41:7 0.5 
3 *41:7 *41:9 505.515 
4 *41:9 *41:13 27.1659 
5 *41:13 *41:21 4.34053 
6 *41:21 *41:23 75.585 
7 *41:23 *343:s2 13.7443 
8 *41:23 *41:51 31.935 
9 *41:51 *41:53 47.61 
10 *41:53 *342:s2 15.7662 
11 *41:53 *41:80 77.115 
12 *41:80 *41:82 0.795 
13 *41:82 *341:s2 13.2813 
14 *41:82 *41:110 82.725 
15 *41:110 *340:s2 18.1408 
16 *41:110 *41:137 46.995 
17 *41:137 *41:147 30.7633 
18 *41:147 *339:s2 4.83478 
19 *41:147 *41:173 41.6215 
20 *41:173 *41:175 44.985 
21 *41:175 *338:s2 13.4678 
22 *41:175 *41:199 77.625 
23 *41:199 *352:s2 12.8501 
24 *41:199 *41:227 78.135 
25 *41:227 *351:s2 11.8151 
26 *351:s2 *41:250 0.163333 
27 *41:227 *41:255 77.115 
28 *41:255 *350:s2 6.92253 
29 *41:255 *41:274 56.91 
30 *41:274 *41:278 26.88 
31 *41:278 *349:s2 16.6945 
32 *41:278 *41:307 46.68 
33 *41:307 *41:315 32.1871 
34 *41:315 *348:s2 4.3948 
35 *41:315 *41:337 46.035 
36 *41:337 *347:s2 30.6336 
37 *347:s2 *41:385 14.825 
38 *41:385 *41:387 80.685 
39 *41:387 *346:s2 14.2393 
40 *41:387 *41:410 68.445 
41 *41:410 *41:416 5.94 
42 *41:416 *345:s2 8.74725 
43 *41:416 *41:436 68.955 
44 *41:436 *337:s2 7.74123 
45 *41:13 *344:s2 10.6727 
*END

*D_NET *52 0.426848
*CONN
*P io_in[2] I
*I *346:s3 I *D sky130_osu_ring_oscillator_mpr2ca_8_b0r1
*I *337:s3 I *D sky130_osu_ring_oscillator_mpr2aa_8_b0r1
*I *345:s3 I *D sky130_osu_ring_oscillator_mpr2at_8_b0r1
*I *347:s3 I *D sky130_osu_ring_oscillator_mpr2ct_8_b0r1
*I *348:s3 I *D sky130_osu_ring_oscillator_mpr2ea_8_b0r1
*I *349:s3 I *D sky130_osu_ring_oscillator_mpr2et_8_b0r1
*I *350:s3 I *D sky130_osu_ring_oscillator_mpr2xa_8_b0r1
*I *351:s3 I *D sky130_osu_ring_oscillator_mpr2ya_8_b0r1
*I *352:s3 I *D sky130_osu_ring_oscillator_mpr2aa_8_b0r2
*I *338:s3 I *D sky130_osu_ring_oscillator_mpr2at_8_b0r2
*I *339:s3 I *D sky130_osu_ring_oscillator_mpr2ca_8_b0r2
*I *340:s3 I *D sky130_osu_ring_oscillator_mpr2ct_8_b0r2
*I *341:s3 I *D sky130_osu_ring_oscillator_mpr2ea_8_b0r2
*I *342:s3 I *D sky130_osu_ring_oscillator_mpr2et_8_b0r2
*I *343:s3 I *D sky130_osu_ring_oscillator_mpr2xa_8_b0r2
*I *344:s3 I *D sky130_osu_ring_oscillator_mpr2ya_8_b0r2
*CAP
1 io_in[2] 0.0535066
2 *346:s3 0.000619929
3 *337:s3 0.00246384
4 *345:s3 0.00197553
5 *347:s3 0.000700309
6 *348:s3 0.00233777
7 *349:s3 0.00182481
8 *350:s3 0.00207019
9 *351:s3 0.0015853
10 *352:s3 0.00232364
11 *338:s3 0.00229274
12 *339:s3 0.00209886
13 *340:s3 0.00245158
14 *341:s3 0.00212997
15 *342:s3 0.00060262
16 *343:s3 0.000617599
17 *344:s3 0.00193861
18 *52:475 0.00518268
19 *52:473 0.00271884
20 *52:449 0.00301312
21 *52:437 0.00361584
22 *52:435 0.00482596
23 *52:425 0.00333463
24 *52:421 0.00355883
25 *52:419 0.00309184
26 *52:398 0.00238239
27 *52:394 0.00497961
28 *52:392 0.00374919
29 *52:362 0.00278943
30 *52:360 0.00298895
31 *52:334 0.00529819
32 *52:326 0.00454423
33 *52:324 0.00487707
34 *52:298 0.00288747
35 *52:296 0.00444405
36 *52:268 0.00976173
37 *52:240 0.00632643
38 *52:234 0.00460724
39 *52:232 0.00433682
40 *52:208 0.00266903
41 *52:204 0.00284661
42 *52:202 0.00340914
43 *52:169 0.00419573
44 *52:167 0.00316533
45 *52:156 0
46 *52:137 0.00779556
47 *52:135 0.00354673
48 *52:109 0.00234
49 *52:107 0.00277274
50 *52:105 0.00409876
51 *52:79 0.00402632
52 *52:75 0.00493115
53 *52:73 0.00485891
54 *52:45 0.0044933
55 *52:39 0.00474862
56 *52:37 0.00289836
57 *52:13 0.0139261
58 *52:9 0.0316164
59 *52:7 0.0196289
60 *52:5 0.0535066
61 *338:s3 *314:11 0
62 *339:s3 *339:s4 0.00103332
63 *339:s3 *62:149 6.04344e-05
64 *341:s3 *61:115 0.000532696
65 *345:s3 *300:15 0.000362359
66 *346:s3 *292:11 0
67 *349:s3 *294:7 0
68 *349:s3 *294:13 0.00158286
69 *350:s3 *61:296 0
70 *350:s3 *62:262 0
71 *351:s3 *351:s4 0
72 *351:s3 *61:238 0.000445361
73 *351:s3 *296:12 0.0008676
74 *352:s3 *62:201 0
75 *52:39 *62:33 0.00557226
76 *52:39 *62:51 0.000554636
77 *52:39 *62:53 0
78 *52:45 *61:59 0
79 *52:105 *61:107 0.00096154
80 *52:107 *61:109 0.00677726
81 *52:107 *287:14 0
82 *52:135 *61:115 1.35034e-05
83 *52:137 *61:147 0
84 *52:137 *62:101 0.00275176
85 *52:137 *62:129 0
86 *52:167 *61:147 0
87 *52:167 *62:129 0.00188189
88 *52:169 *61:147 0
89 *52:169 *62:129 0.00196966
90 *52:169 *62:149 0.000853921
91 *52:169 *317:17 1.93834e-05
92 *52:202 *335:data_in[9] 0.000357104
93 *52:204 *61:174 0.0050543
94 *52:204 *61:192 0.000442227
95 *52:204 *61:194 0
96 *52:204 *271:18 0.000777188
97 *52:208 *311:22 3.96423e-05
98 *52:208 *312:25 0.000161222
99 *52:208 *314:11 0
100 *52:234 *62:201 0
101 *52:234 *311:14 0
102 *52:234 *311:20 0
103 *52:268 *351:s5 0
104 *52:268 *61:238 0.00212056
105 *52:268 *62:201 0
106 *52:268 *62:211 0
107 *52:268 *62:233 0
108 *52:296 *350:s5 0
109 *52:296 *62:233 0
110 *52:296 *62:264 0
111 *52:326 *62:286 0.000385001
112 *52:326 *276:13 0.000774601
113 *52:326 *277:18 0.000731474
114 *52:326 *324:10 0
115 *52:334 *61:339 0.000156345
116 *52:334 *278:11 0
117 *52:334 *291:25 4.92027e-05
118 *52:334 *294:13 0.000299725
119 *52:360 *61:339 0.00223715
120 *52:360 *61:355 0.000795727
121 *52:360 *326:13 2.84053e-05
122 *52:392 *62:306 0.000393851
123 *52:392 *62:308 0
124 *52:392 *291:21 0
125 *52:394 *61:396 0.00286624
126 *52:394 *62:308 0
127 *52:394 *62:326 0.000247618
128 *52:394 *291:21 0
129 *52:394 *325:15 5.94427e-06
130 *52:398 *347:s4 0
131 *52:398 *61:396 0
132 *52:398 *260:17 0
133 *52:425 *292:11 0
134 *52:435 *62:326 0
135 *52:435 *62:342 0
136 *52:435 *276:11 0
137 *52:435 *291:21 0
138 *52:437 *61:451 0.00029087
139 *52:437 *62:342 0
140 *52:437 *62:344 0.00508986
141 *52:437 *291:21 0.000377834
142 *52:449 *345:s5 2.13988e-05
143 *52:449 *61:451 0.000445991
144 *52:449 *62:344 5.53922e-05
145 *52:449 *300:15 0.000168596
146 *52:449 *323:19 1.87784e-05
147 *52:475 *337:s4 7.91123e-05
148 *52:475 *61:474 0.00295105
149 *342:s2 *52:79 0.00274258
150 *343:s2 *52:73 0.000559009
151 *30:42 *52:75 0.00357419
152 *30:53 *52:75 0.000403036
153 *41:13 *344:s3 0.00168528
154 *41:13 *52:13 0.00789279
*RES
1 io_in[2] *52:5 134.061 
2 *52:5 *52:7 0.5 
3 *52:7 *52:9 357.105 
4 *52:9 *52:13 38.994 
5 *52:13 *344:s3 16.2653 
6 *52:13 *52:37 0.5 
7 *52:37 *52:39 75.585 
8 *52:39 *52:45 5.81587 
9 *52:45 *343:s3 10.007 
10 *52:45 *52:73 9.2866 
11 *52:73 *52:75 76.605 
12 *52:75 *52:79 7.47173 
13 *52:79 *342:s3 10.3383 
14 *52:79 *52:105 4.5584 
15 *52:105 *52:107 78.135 
16 *52:107 *52:109 0.5 
17 *52:109 *341:s3 13.4694 
18 *52:109 *52:135 1.0624 
19 *52:135 *52:137 81.195 
20 *52:137 *340:s3 18.6707 
21 *340:s3 *52:156 0.163333 
22 *52:137 *52:167 48.585 
23 *52:167 *52:169 32.205 
24 *52:169 *339:s3 15.5457 
25 *52:169 *52:202 13.7683 
26 *52:202 *52:204 72.015 
27 *52:204 *52:208 1.70333 
28 *52:208 *338:s3 16.7983 
29 *52:208 *52:232 0.5 
30 *52:232 *52:234 78.135 
31 *52:234 *52:240 1.62067 
32 *52:240 *352:s3 17.5502 
33 *52:240 *52:268 73.035 
34 *52:268 *351:s3 12.2483 
35 *52:268 *52:296 79.155 
36 *52:296 *52:298 0.5 
37 *52:298 *350:s3 11.1349 
38 *52:298 *52:324 2.69387 
39 *52:324 *52:326 81.705 
40 *52:326 *52:334 5.54313 
41 *52:334 *349:s3 17.3388 
42 *52:334 *52:360 74.565 
43 *52:360 *52:362 0.5 
44 *52:362 *348:s3 13.4992 
45 *52:362 *52:392 6.50567 
46 *52:392 *52:394 73.305 
47 *52:394 *52:398 4.96627 
48 *52:398 *347:s3 7.87223 
49 *52:398 *52:419 0.5 
50 *52:419 *52:421 56.28 
51 *52:421 *52:425 8.13 
52 *52:425 *52:435 14.4911 
53 *52:435 *52:437 72.555 
54 *52:437 *52:449 18.1768 
55 *52:449 *345:s3 13.8282 
56 *52:449 *52:473 0.5 
57 *52:473 *52:475 67.935 
58 *52:475 *337:s3 13.6083 
59 *52:425 *346:s3 12.9987 
*END

*D_NET *61 0.355832
*CONN
*P io_in[3] I
*I *340:s4 I *D sky130_osu_ring_oscillator_mpr2ct_8_b0r2
*I *337:s4 I *D sky130_osu_ring_oscillator_mpr2aa_8_b0r1
*I *345:s4 I *D sky130_osu_ring_oscillator_mpr2at_8_b0r1
*I *346:s4 I *D sky130_osu_ring_oscillator_mpr2ca_8_b0r1
*I *347:s4 I *D sky130_osu_ring_oscillator_mpr2ct_8_b0r1
*I *348:s4 I *D sky130_osu_ring_oscillator_mpr2ea_8_b0r1
*I *349:s4 I *D sky130_osu_ring_oscillator_mpr2et_8_b0r1
*I *350:s4 I *D sky130_osu_ring_oscillator_mpr2xa_8_b0r1
*I *351:s4 I *D sky130_osu_ring_oscillator_mpr2ya_8_b0r1
*I *352:s4 I *D sky130_osu_ring_oscillator_mpr2aa_8_b0r2
*I *338:s4 I *D sky130_osu_ring_oscillator_mpr2at_8_b0r2
*I *339:s4 I *D sky130_osu_ring_oscillator_mpr2ca_8_b0r2
*I *341:s4 I *D sky130_osu_ring_oscillator_mpr2ea_8_b0r2
*I *342:s4 I *D sky130_osu_ring_oscillator_mpr2et_8_b0r2
*I *343:s4 I *D sky130_osu_ring_oscillator_mpr2xa_8_b0r2
*I *344:s4 I *D sky130_osu_ring_oscillator_mpr2ya_8_b0r2
*CAP
1 io_in[3] 0.000793773
2 *340:s4 0.000347256
3 *337:s4 0.00112234
4 *345:s4 0.00086022
5 *346:s4 0.00142062
6 *347:s4 0.00173308
7 *348:s4 0.000267663
8 *349:s4 0.0039916
9 *350:s4 0.00015126
10 *351:s4 0.000580763
11 *352:s4 0.000322927
12 *338:s4 0.000999038
13 *339:s4 0.0014329
14 *341:s4 0.000735149
15 *342:s4 0.00167675
16 *343:s4 0.000157999
17 *344:s4 0.000416781
18 *61:474 0.00351736
19 *61:472 0.00239502
20 *61:455 0.00113979
21 *61:451 0.00181099
22 *61:449 0.00211552
23 *61:422 0.0049142
24 *61:420 0.00290948
25 *61:396 0.00448575
26 *61:384 0.00560547
27 *61:382 0.00330282
28 *61:355 0.00216233
29 *61:339 0.00318555
30 *61:335 0.00288735
31 *61:296 0.00511751
32 *61:264 0.00619872
33 *61:238 0.00709134
34 *61:220 0.0056448
35 *61:200 0.00467239
36 *61:194 0.00590321
37 *61:192 0.00471598
38 *61:178 0.0013089
39 *61:174 0.00123563
40 *61:172 0.00127439
41 *61:149 0.00152863
42 *61:147 0.0052742
43 *61:145 0.00597476
44 *61:139 0.00466556
45 *61:115 0.00497323
46 *61:109 0.00326491
47 *61:107 0.00369463
48 *61:76 2.85417e-06
49 *61:61 0.00430685
50 *61:59 0.00429534
51 *61:33 0.0046226
52 *61:31 0.00385228
53 *61:13 0.0648776
54 *61:11 0.0644608
55 *61:9 0.0101306
56 *61:7 0.0109244
57 *337:s4 *316:15 0
58 *338:s4 *338:s5 0
59 *339:s4 *62:149 0.000416554
60 *340:s4 *302:11 0
61 *342:s4 *288:12 0.000848497
62 *342:s4 *304:12 0
63 *345:s4 *62:376 0.00072189
64 *345:s4 *300:15 0.00039013
65 *349:s4 *62:264 0
66 *349:s4 *263:12 0
67 *349:s4 *295:8 0
68 *349:s4 *311:12 0
69 *61:9 *62:11 0.00385151
70 *61:33 *305:11 0.000424146
71 *61:59 *305:11 8.16252e-05
72 *61:61 *288:12 0
73 *61:109 *287:14 0
74 *61:139 *302:11 0
75 *61:145 *254:11 0
76 *61:145 *286:11 0.00181327
77 *61:145 *302:13 0
78 *61:147 *271:18 0
79 *61:172 *62:149 0.00026015
80 *61:174 *271:18 0.00597366
81 *61:178 *338:s5 0
82 *61:192 *331:13 1.45975e-05
83 *61:194 *271:18 0
84 *61:194 *311:20 0
85 *61:194 *312:21 0
86 *61:238 *351:s5 8.62718e-05
87 *61:238 *62:201 0
88 *61:238 *62:211 0
89 *61:264 *312:19 0.000477686
90 *61:335 *278:11 0
91 *61:335 *294:13 0.000346089
92 *61:355 *348:s5 0.000258529
93 *61:355 *326:13 1.84465e-05
94 *61:396 *62:326 0
95 *61:396 *291:21 0
96 *61:422 *62:326 0
97 *61:422 *62:342 0
98 *61:422 *260:13 0.00498267
99 *61:449 *62:342 0
100 *61:451 *345:s5 5.1985e-06
101 *61:451 *62:344 0.00519415
102 *61:451 *291:21 0.00470417
103 *61:451 *323:19 8.41015e-06
104 *61:455 *62:376 5.99126e-05
105 *61:455 *300:15 0.000237168
106 *339:s3 *339:s4 0.00103332
107 *341:s3 *61:115 0.000532696
108 *350:s3 *61:296 0
109 *351:s3 *351:s4 0
110 *351:s3 *61:238 0.000445361
111 *52:45 *61:59 0
112 *52:105 *61:107 0.00096154
113 *52:107 *61:109 0.00677726
114 *52:135 *61:115 1.35034e-05
115 *52:137 *61:147 0
116 *52:167 *61:147 0
117 *52:169 *61:147 0
118 *52:204 *61:174 0.0050543
119 *52:204 *61:192 0.000442227
120 *52:204 *61:194 0
121 *52:268 *61:238 0.00212056
122 *52:334 *61:339 0.000156345
123 *52:360 *61:339 0.00223715
124 *52:360 *61:355 0.000795727
125 *52:394 *61:396 0.00286624
126 *52:398 *347:s4 0
127 *52:398 *61:396 0
128 *52:437 *61:451 0.00029087
129 *52:449 *61:451 0.000445991
130 *52:475 *337:s4 7.91123e-05
131 *52:475 *61:474 0.00295105
*RES
1 io_in[3] *61:7 2.58747 
2 *61:7 *61:9 200.535 
3 *61:9 *61:11 0.5 
4 *61:11 *61:13 172.682 
5 *61:13 *344:s4 3.14552 
6 *61:13 *61:31 0.5 
7 *61:31 *61:33 71.1225 
8 *61:33 *343:s4 4.8275 
9 *61:33 *61:59 7.14483 
10 *61:59 *61:61 66.405 
11 *61:61 *342:s4 7.9166 
12 *342:s4 *61:76 0.98 
13 *342:s4 *61:107 12.7587 
14 *61:107 *61:109 76.095 
15 *61:109 *61:115 3.01907 
16 *61:115 *341:s4 8.15998 
17 *61:115 *61:139 65.385 
18 *61:139 *61:145 3.71827 
19 *61:145 *61:147 94.965 
20 *61:147 *61:149 0.5 
21 *61:149 *339:s4 12.4557 
22 *61:149 *61:172 0.8876 
23 *61:172 *61:174 67.0425 
24 *61:174 *61:178 2.795 
25 *61:178 *338:s4 17.3175 
26 *61:178 *61:192 8.5625 
27 *61:192 *61:194 80.175 
28 *61:194 *61:200 4.59227 
29 *61:200 *352:s4 4.16857 
30 *61:200 *61:220 52.635 
31 *61:220 *61:238 31.3933 
32 *61:238 *351:s4 6.73643 
33 *61:238 *61:264 71.8875 
34 *61:264 *350:s4 4.71875 
35 *61:264 *61:296 39.8232 
36 *61:296 *349:s4 44.9816 
37 *349:s4 *61:335 13.3065 
38 *61:335 *61:339 46.68 
39 *61:339 *61:355 35.18 
40 *61:355 *348:s4 4.7625 
41 *61:355 *61:382 7.7018 
42 *61:382 *61:384 51.615 
43 *61:384 *61:396 41.1539 