*SPEF "ieee 1481-1999"
*DESIGN "user_project_wrapper"
*DATE "11:11:11 Fri 11 11, 1111"
*VENDOR "OpenRCX"
*PROGRAM "Parallel Extraction"
*VERSION "1.0"
*DESIGN_FLOW "NAME_SCOPE LOCAL" "PIN_CAP NONE"
*DIVIDER /
*DELIMITER :
*BUS_DELIMITER []
*T_UNIT 1 NS
*C_UNIT 1 PF
*R_UNIT 1 OHM
*L_UNIT 1 HENRY

*NAME_MAP
*1 analog_io[0]
*2 analog_io[10]
*3 analog_io[11]
*4 analog_io[12]
*5 analog_io[13]
*6 analog_io[14]
*7 analog_io[15]
*8 analog_io[16]
*9 analog_io[17]
*10 analog_io[18]
*11 analog_io[19]
*12 analog_io[1]
*13 analog_io[20]
*14 analog_io[21]
*15 analog_io[22]
*16 analog_io[23]
*17 analog_io[24]
*18 analog_io[25]
*19 analog_io[26]
*20 analog_io[27]
*21 analog_io[28]
*22 analog_io[2]
*23 analog_io[3]
*24 analog_io[4]
*25 analog_io[5]
*26 analog_io[6]
*27 analog_io[7]
*28 analog_io[8]
*29 analog_io[9]
*30 io_in[0]
*31 io_in[10]
*32 io_in[11]
*33 io_in[12]
*34 io_in[13]
*35 io_in[14]
*36 io_in[15]
*37 io_in[16]
*38 io_in[17]
*39 io_in[18]
*40 io_in[19]
*41 io_in[1]
*42 io_in[20]
*43 io_in[21]
*44 io_in[22]
*45 io_in[23]
*46 io_in[24]
*47 io_in[25]
*48 io_in[26]
*49 io_in[27]
*50 io_in[28]
*51 io_in[29]
*52 io_in[2]
*53 io_in[30]
*54 io_in[31]
*55 io_in[32]
*56 io_in[33]
*57 io_in[34]
*58 io_in[35]
*59 io_in[36]
*60 io_in[37]
*61 io_in[3]
*62 io_in[4]
*63 io_in[5]
*64 io_in[6]
*65 io_in[7]
*66 io_in[8]
*67 io_in[9]
*68 io_oeb[0]
*69 io_oeb[10]
*70 io_oeb[11]
*71 io_oeb[12]
*72 io_oeb[13]
*73 io_oeb[14]
*74 io_oeb[15]
*75 io_oeb[16]
*76 io_oeb[17]
*77 io_oeb[18]
*78 io_oeb[19]
*79 io_oeb[1]
*80 io_oeb[20]
*81 io_oeb[21]
*82 io_oeb[22]
*83 io_oeb[23]
*84 io_oeb[24]
*85 io_oeb[25]
*86 io_oeb[26]
*87 io_oeb[27]
*88 io_oeb[28]
*89 io_oeb[29]
*90 io_oeb[2]
*91 io_oeb[30]
*92 io_oeb[31]
*93 io_oeb[32]
*94 io_oeb[33]
*95 io_oeb[34]
*96 io_oeb[35]
*97 io_oeb[36]
*98 io_oeb[37]
*99 io_oeb[3]
*100 io_oeb[4]
*101 io_oeb[5]
*102 io_oeb[6]
*103 io_oeb[7]
*104 io_oeb[8]
*105 io_oeb[9]
*106 io_out[0]
*107 io_out[10]
*108 io_out[11]
*109 io_out[12]
*110 io_out[13]
*111 io_out[14]
*112 io_out[15]
*113 io_out[16]
*114 io_out[17]
*115 io_out[18]
*116 io_out[19]
*117 io_out[1]
*118 io_out[20]
*119 io_out[21]
*120 io_out[22]
*121 io_out[23]
*122 io_out[24]
*123 io_out[25]
*124 io_out[26]
*125 io_out[27]
*126 io_out[28]
*127 io_out[29]
*128 io_out[2]
*129 io_out[30]
*130 io_out[31]
*131 io_out[32]
*132 io_out[33]
*133 io_out[34]
*134 io_out[35]
*135 io_out[36]
*136 io_out[37]
*137 io_out[3]
*138 io_out[4]
*139 io_out[5]
*140 io_out[6]
*141 io_out[7]
*142 io_out[8]
*143 io_out[9]
*146 wb_clk_i
*147 wb_rst_i
*148 wbs_ack_o
*149 wbs_adr_i[0]
*150 wbs_adr_i[10]
*151 wbs_adr_i[11]
*152 wbs_adr_i[12]
*153 wbs_adr_i[13]
*154 wbs_adr_i[14]
*155 wbs_adr_i[15]
*156 wbs_adr_i[16]
*157 wbs_adr_i[17]
*158 wbs_adr_i[18]
*159 wbs_adr_i[19]
*160 wbs_adr_i[1]
*161 wbs_adr_i[20]
*162 wbs_adr_i[21]
*163 wbs_adr_i[22]
*164 wbs_adr_i[23]
*165 wbs_adr_i[24]
*166 wbs_adr_i[25]
*167 wbs_adr_i[26]
*168 wbs_adr_i[27]
*169 wbs_adr_i[28]
*170 wbs_adr_i[29]
*171 wbs_adr_i[2]
*172 wbs_adr_i[30]
*173 wbs_adr_i[31]
*174 wbs_adr_i[3]
*175 wbs_adr_i[4]
*176 wbs_adr_i[5]
*177 wbs_adr_i[6]
*178 wbs_adr_i[7]
*179 wbs_adr_i[8]
*180 wbs_adr_i[9]
*181 wbs_cyc_i
*182 wbs_dat_i[0]
*183 wbs_dat_i[10]
*184 wbs_dat_i[11]
*185 wbs_dat_i[12]
*186 wbs_dat_i[13]
*187 wbs_dat_i[14]
*188 wbs_dat_i[15]
*189 wbs_dat_i[16]
*190 wbs_dat_i[17]
*191 wbs_dat_i[18]
*192 wbs_dat_i[19]
*193 wbs_dat_i[1]
*194 wbs_dat_i[20]
*195 wbs_dat_i[21]
*196 wbs_dat_i[22]
*197 wbs_dat_i[23]
*198 wbs_dat_i[24]
*199 wbs_dat_i[25]
*200 wbs_dat_i[26]
*201 wbs_dat_i[27]
*202 wbs_dat_i[28]
*203 wbs_dat_i[29]
*204 wbs_dat_i[2]
*205 wbs_dat_i[30]
*206 wbs_dat_i[31]
*207 wbs_dat_i[3]
*208 wbs_dat_i[4]
*209 wbs_dat_i[5]
*210 wbs_dat_i[6]
*211 wbs_dat_i[7]
*212 wbs_dat_i[8]
*213 wbs_dat_i[9]
*214 wbs_dat_o[0]
*215 wbs_dat_o[10]
*216 wbs_dat_o[11]
*217 wbs_dat_o[12]
*218 wbs_dat_o[13]
*219 wbs_dat_o[14]
*220 wbs_dat_o[15]
*221 wbs_dat_o[16]
*222 wbs_dat_o[17]
*223 wbs_dat_o[18]
*224 wbs_dat_o[19]
*225 wbs_dat_o[1]
*226 wbs_dat_o[20]
*227 wbs_dat_o[21]
*228 wbs_dat_o[22]
*229 wbs_dat_o[23]
*230 wbs_dat_o[24]
*231 wbs_dat_o[25]
*232 wbs_dat_o[26]
*233 wbs_dat_o[27]
*234 wbs_dat_o[28]
*235 wbs_dat_o[29]
*236 wbs_dat_o[2]
*237 wbs_dat_o[30]
*238 wbs_dat_o[31]
*239 wbs_dat_o[3]
*240 wbs_dat_o[4]
*241 wbs_dat_o[5]
*242 wbs_dat_o[6]
*243 wbs_dat_o[7]
*244 wbs_dat_o[8]
*245 wbs_dat_o[9]
*246 wbs_sel_i[0]
*247 wbs_sel_i[1]
*248 wbs_sel_i[2]
*249 wbs_sel_i[3]
*250 wbs_stb_i
*251 wbs_we_i
*252 a\[0\]
*253 a\[1\]
*254 a\[2\]
*255 a\[3\]
*256 a\[4\]
*257 zero_
*258 TIE_ZERO_zero_
*259 mprj
*260 ro1

*PORTS
analog_io[0] I
analog_io[10] I
analog_io[11] I
analog_io[12] I
analog_io[13] I
analog_io[14] I
analog_io[15] I
analog_io[16] I
analog_io[17] I
analog_io[18] I
analog_io[19] I
analog_io[1] I
analog_io[20] I
analog_io[21] I
analog_io[22] I
analog_io[23] I
analog_io[24] I
analog_io[25] I
analog_io[26] I
analog_io[27] I
analog_io[28] I
analog_io[2] I
analog_io[3] I
analog_io[4] I
analog_io[5] I
analog_io[6] I
analog_io[7] I
analog_io[8] I
analog_io[9] I
io_in[0] I
io_in[10] I
io_in[11] I
io_in[12] I
io_in[13] I
io_in[14] I
io_in[15] I
io_in[16] I
io_in[17] I
io_in[18] I
io_in[19] I
io_in[1] I
io_in[20] I
io_in[21] I
io_in[22] I
io_in[23] I
io_in[24] I
io_in[25] I
io_in[26] I
io_in[27] I
io_in[28] I
io_in[29] I
io_in[2] I
io_in[30] I
io_in[31] I
io_in[32] I
io_in[33] I
io_in[34] I
io_in[35] I
io_in[36] I
io_in[37] I
io_in[3] I
io_in[4] I
io_in[5] I
io_in[6] I
io_in[7] I
io_in[8] I
io_in[9] I
io_oeb[0] O
io_oeb[10] O
io_oeb[11] O
io_oeb[12] O
io_oeb[13] O
io_oeb[14] O
io_oeb[15] O
io_oeb[16] O
io_oeb[17] O
io_oeb[18] O
io_oeb[19] O
io_oeb[1] O
io_oeb[20] O
io_oeb[21] O
io_oeb[22] O
io_oeb[23] O
io_oeb[24] O
io_oeb[25] O
io_oeb[26] O
io_oeb[27] O
io_oeb[28] O
io_oeb[29] O
io_oeb[2] O
io_oeb[30] O
io_oeb[31] O
io_oeb[32] O
io_oeb[33] O
io_oeb[34] O
io_oeb[35] O
io_oeb[36] O
io_oeb[37] O
io_oeb[3] O
io_oeb[4] O
io_oeb[5] O
io_oeb[6] O
io_oeb[7] O
io_oeb[8] O
io_oeb[9] O
io_out[0] O
io_out[10] O
io_out[11] O
io_out[12] O
io_out[13] O
io_out[14] O
io_out[15] O
io_out[16] O
io_out[17] O
io_out[18] O
io_out[19] O
io_out[1] O
io_out[20] O
io_out[21] O
io_out[22] O
io_out[23] O
io_out[24] O
io_out[25] O
io_out[26] O
io_out[27] O
io_out[28] O
io_out[29] O
io_out[2] O
io_out[30] O
io_out[31] O
io_out[32] O
io_out[33] O
io_out[34] O
io_out[35] O
io_out[36] O
io_out[37] O
io_out[3] O
io_out[4] O
io_out[5] O
io_out[6] O
io_out[7] O
io_out[8] O
io_out[9] O
wb_clk_i I
wb_rst_i I
wbs_ack_o O
wbs_adr_i[0] I
wbs_adr_i[10] I
wbs_adr_i[11] I
wbs_adr_i[12] I
wbs_adr_i[13] I
wbs_adr_i[14] I
wbs_adr_i[15] I
wbs_adr_i[16] I
wbs_adr_i[17] I
wbs_adr_i[18] I
wbs_adr_i[19] I
wbs_adr_i[1] I
wbs_adr_i[20] I
wbs_adr_i[21] I
wbs_adr_i[22] I
wbs_adr_i[23] I
wbs_adr_i[24] I
wbs_adr_i[25] I
wbs_adr_i[26] I
wbs_adr_i[27] I
wbs_adr_i[28] I
wbs_adr_i[29] I
wbs_adr_i[2] I
wbs_adr_i[30] I
wbs_adr_i[31] I
wbs_adr_i[3] I
wbs_adr_i[4] I
wbs_adr_i[5] I
wbs_adr_i[6] I
wbs_adr_i[7] I
wbs_adr_i[8] I
wbs_adr_i[9] I
wbs_cyc_i I
wbs_dat_i[0] I
wbs_dat_i[10] I
wbs_dat_i[11] I
wbs_dat_i[12] I
wbs_dat_i[13] I
wbs_dat_i[14] I
wbs_dat_i[15] I
wbs_dat_i[16] I
wbs_dat_i[17] I
wbs_dat_i[18] I
wbs_dat_i[19] I
wbs_dat_i[1] I
wbs_dat_i[20] I
wbs_dat_i[21] I
wbs_dat_i[22] I
wbs_dat_i[23] I
wbs_dat_i[24] I
wbs_dat_i[25] I
wbs_dat_i[26] I
wbs_dat_i[27] I
wbs_dat_i[28] I
wbs_dat_i[29] I
wbs_dat_i[2] I
wbs_dat_i[30] I
wbs_dat_i[31] I
wbs_dat_i[3] I
wbs_dat_i[4] I
wbs_dat_i[5] I
wbs_dat_i[6] I
wbs_dat_i[7] I
wbs_dat_i[8] I
wbs_dat_i[9] I
wbs_dat_o[0] O
wbs_dat_o[10] O
wbs_dat_o[11] O
wbs_dat_o[12] O
wbs_dat_o[13] O
wbs_dat_o[14] O
wbs_dat_o[15] O
wbs_dat_o[16] O
wbs_dat_o[17] O
wbs_dat_o[18] O
wbs_dat_o[19] O
wbs_dat_o[1] O
wbs_dat_o[20] O
wbs_dat_o[21] O
wbs_dat_o[22] O
wbs_dat_o[23] O
wbs_dat_o[24] O
wbs_dat_o[25] O
wbs_dat_o[26] O
wbs_dat_o[27] O
wbs_dat_o[28] O
wbs_dat_o[29] O
wbs_dat_o[2] O
wbs_dat_o[30] O
wbs_dat_o[31] O
wbs_dat_o[3] O
wbs_dat_o[4] O
wbs_dat_o[5] O
wbs_dat_o[6] O
wbs_dat_o[7] O
wbs_dat_o[8] O
wbs_dat_o[9] O
wbs_sel_i[0] I
wbs_sel_i[1] I
wbs_sel_i[2] I
wbs_sel_i[3] I
wbs_stb_i I
wbs_we_i I

*D_NET *30 0.27876
*CONN
*P io_in[0] I
*I *260:s1 I *D sky130_osu_ring_oscillator_mpr2ca_8_b0r1
*CAP
1 io_in[0] 0.0649407
2 *260:s1 0.00176588
3 *30:9 0.0744391
4 *30:7 0.0726732
5 *30:5 0.0649407
*RES
1 io_in[0] *30:5 182.627 
2 *30:5 *30:7 0.5 
3 *30:7 *30:9 214.361 
4 *30:9 *260:s1 9.62717 
*END

*D_NET *41 0.256986
*CONN
*P io_in[1] I
*I *260:s2 I *D sky130_osu_ring_oscillator_mpr2ca_8_b0r1
*CAP
1 io_in[1] 0.0609457
2 *260:s2 0.00380389
3 *41:9 0.0675471
4 *41:7 0.0637432
5 *41:5 0.0609457
*RES
1 io_in[1] *41:5 171.643 
2 *41:5 *41:7 0.5 
3 *41:7 *41:9 1157.3 
4 *41:9 *260:s2 12.1175 
*END

*D_NET *52 0.260091
*CONN
*P io_in[2] I
*I *260:s3 I *D sky130_osu_ring_oscillator_mpr2ca_8_b0r1
*CAP
1 io_in[2] 0.0634505
2 *260:s3 0.000251672
3 *52:9 0.0665952
4 *52:7 0.0663435
5 *52:5 0.0634505
6 *260:s3 *254:12 0
*RES
1 io_in[2] *52:5 178.548 
2 *52:5 *52:7 0.5 
3 *52:7 *52:9 168.343 
4 *52:9 *260:s3 5.02713 
*END

*D_NET *61 0.222942
*CONN
*P io_in[3] I
*I *260:s4 I *D sky130_osu_ring_oscillator_mpr2ca_8_b0r1
*CAP
1 io_in[3] 0.0626811
2 *260:s4 0.000272632
3 *61:9 0.0487899
4 *61:7 0.0485173
5 *61:5 0.0626811
*RES
1 io_in[3] *61:5 176.567 
2 *61:5 *61:7 0.5 
3 *61:7 *61:9 143.105 
4 *61:9 *260:s4 5.06665 
*END

*D_NET *62 0.20427
*CONN
*P io_in[4] I
*I *260:s5 I *D sky130_osu_ring_oscillator_mpr2ca_8_b0r1
*CAP
1 io_in[4] 0.0617485
2 *260:s5 0.000285829
3 *62:9 0.0403863
4 *62:7 0.0401005
5 *62:5 0.0617485
*RES
1 io_in[4] *62:5 173.887 
2 *62:5 *62:7 0.5 
3 *62:7 *62:9 118.299 
4 *62:9 *260:s5 1.79737 
*END

*D_NET *63 0.189482
*CONN
*P io_in[5] I
*I *260:start I *D sky130_osu_ring_oscillator_mpr2ca_8_b0r1
*CAP
1 io_in[5] 0.00102681
2 *260:start 0.000552218
3 *63:17 0.0307072
4 *63:15 0.030155
5 *63:13 0.0630069
6 *63:11 0.0640337
*RES
1 io_in[5] *63:11 9.46823 
2 *63:11 *63:13 1089.27 
3 *63:13 *63:15 2 
4 *63:15 *63:17 547.845 
5 *63:17 *260:start 11.4725 
*END

*D_NET *64 0.0683106
*CONN
*P io_in[6] I
*I *259:select[0] I *D mux16x1_project
*CAP
1 io_in[6] 0.0142443
2 *259:select[0] 0.00011691
3 *64:9 0.019911
4 *64:7 0.0340384
*RES
1 io_in[6] *64:7 40.3443 
2 *64:7 *64:9 359.655 
3 *64:9 *259:select[0] 2.1225 
*END

*D_NET *65 0.0463977
*CONN
*P io_in[7] I
*I *259:select[1] I *D mux16x1_project
*CAP
1 io_in[7] 0.0118747
2 *259:select[1] 0.00201864
3 *65:9 0.0113242
4 *65:7 0.0211802
*RES
1 io_in[7] *65:7 34.0515 
2 *65:7 *65:9 168.915 
3 *65:9 *259:select[1] 12.0905 
*END

*D_NET *66 0.0298165
*CONN
*P io_in[8] I
*I *259:select[2] I *D mux16x1_project
*CAP
1 io_in[8] 0.0128443
2 *259:select[2] 0.00206394
3 *66:7 0.0149082
*RES
1 io_in[8] *66:7 36.8483 
2 *66:7 *259:select[2] 37.2825 
*END

*D_NET *67 0.0506169
*CONN
*P io_in[9] I
*I *259:select[3] I *D mux16x1_project
*CAP
1 io_in[9] 0.0122879
2 *259:select[3] 0.0130206
3 *67:7 0.0253085
*RES
1 io_in[9] *67:7 35.2751 
2 *67:7 *259:select[3] 236.182 
*END

*D_NET *106 0.157961
*CONN
*P io_out[0] O
*I *259:y O *D mux16x1_project
*CAP
1 io_out[0] 0.0115942
2 *259:y 0.000474906
3 *106:9 0.0785054
4 *106:7 0.0673861
*RES
1 *259:y *106:7 1.80087 
2 *106:7 *106:9 197.111 
3 *106:9 io_out[0] 33.2649 
*END

*D_NET *252 0.102371
*CONN
*I *259:data_in[0] I *D mux16x1_project
*I *260:X1_Y1 O *D sky130_osu_ring_oscillator_mpr2ca_8_b0r1
*CAP
1 *259:data_in[0] 0.000859487
2 *260:X1_Y1 0.002354
3 *252:14 0.0488314
4 *252:12 0.0503259
5 *259:data_in[0] *259:data_in[1] 0
6 *259:data_in[0] *257:10 0
*RES
1 *260:X1_Y1 *252:12 47.9863 
2 *252:12 *252:14 828.795 
3 *252:14 *259:data_in[0] 8.68883 
*END

*D_NET *253 0.0984821
*CONN
*I *259:data_in[1] I *D mux16x1_project
*I *260:X2_Y1 O *D sky130_osu_ring_oscillator_mpr2ca_8_b0r1
*CAP
1 *259:data_in[1] 0.000833279
2 *260:X2_Y1 0.00251752
3 *253:14 0.0467235
4 *253:12 0.0458903
5 *253:10 0.00251752
6 *259:data_in[1] *259:data_in[2] 0
7 *259:data_in[1] *257:10 0
8 *259:data_in[0] *259:data_in[1] 0
*RES
1 *260:X2_Y1 *253:10 48.9975 
2 *253:10 *253:12 2 
3 *253:12 *253:14 818.445 
4 *253:14 *259:data_in[1] 8.68883 
*END

*D_NET *254 0.10046
*CONN
*I *259:data_in[2] I *D mux16x1_project
*I *260:X3_Y1 O *D sky130_osu_ring_oscillator_mpr2ca_8_b0r1
*CAP
1 *259:data_in[2] 0.000846299
2 *260:X3_Y1 0.000918622
3 *254:18 0.047285
4 *254:16 0.0484649
5 *254:12 0.00294487
6 *259:data_in[2] *257:10 0
7 *259:data_in[1] *259:data_in[2] 0
8 *260:s3 *254:12 0
*RES
1 *260:X3_Y1 *254:12 21.8025 
2 *254:12 *254:16 38.57 
3 *254:16 *254:18 802.575 
4 *254:18 *259:data_in[2] 8.43383 
*END

*D_NET *255 0.0994979
*CONN
*I *259:data_in[3] I *D mux16x1_project
*I *260:X4_Y1 O *D sky130_osu_ring_oscillator_mpr2ca_8_b0r1
*CAP
1 *259:data_in[3] 0.000841859
2 *260:X4_Y1 0.000130396
3 *255:15 0.0466748
4 *255:13 0.0458329
5 *255:11 0.00294378
6 *255:9 0.00307417
7 *259:data_in[3] *259:data_in[4] 0
8 *259:data_in[3] *257:10 0
*RES
1 *260:X4_Y1 *255:9 4.322 
2 *255:9 *255:11 53.145 
3 *255:11 *255:13 2 
4 *255:13 *255:15 792.225 
5 *255:15 *259:data_in[3] 8.43383 
*END

*D_NET *256 0.0957677
*CONN
*I *259:data_in[4] I *D mux16x1_project
*I *260:X5_Y1 O *D sky130_osu_ring_oscillator_mpr2ca_8_b0r1
*CAP
1 *259:data_in[4] 0.000817531
2 *260:X5_Y1 0.000486008
3 *256:15 0.0441842
4 *256:13 0.0433667
5 *256:11 0.00321364
6 *256:9 0.00369965
7 *259:data_in[4] *259:data_in[5] 0
8 *259:data_in[4] *257:10 0
9 *259:data_in[3] *259:data_in[4] 0
*RES
1 *260:X5_Y1 *256:9 10.325 
2 *256:9 *256:11 57.99 
3 *256:11 *256:13 2 
4 *256:13 *256:15 773.94 
5 *256:15 *259:data_in[4] 8.43383 
*END

*D_NET *257 0.160034
*CONN
*I *259:data_in[15] I *D mux16x1_project
*I *259:data_in[14] I *D mux16x1_project
*I *259:data_in[13] I *D mux16x1_project
*I *259:data_in[12] I *D mux16x1_project
*I *259:data_in[11] I *D mux16x1_project
*I *259:data_in[10] I *D mux16x1_project
*I *259:data_in[9] I *D mux16x1_project
*I *259:data_in[8] I *D mux16x1_project
*I *259:data_in[7] I *D mux16x1_project
*I *259:data_in[6] I *D mux16x1_project
*I *259:data_in[5] I *D mux16x1_project
*I *258:LO O *D sky130_fd_sc_hd__conb_1
*CAP
1 *259:data_in[15] 0.000299713
2 *259:data_in[14] 0.000599427
3 *259:data_in[13] 0.000599427
4 *259:data_in[12] 0.000599427
5 *259:data_in[11] 0.000599427
6 *259:data_in[10] 0.0010184
7 *259:data_in[9] 0.0010184
8 *259:data_in[8] 0.000599427
9 *259:data_in[7] 0.000599427
10 *259:data_in[6] 0.000599427
11 *259:data_in[5] 0.000729378
12 *258:LO 0
13 *257:10 0.0715244
14 *257:8 0.0710947
15 *257:6 0.00507627
16 *257:4 0.00507627
17 *259:data_in[0] *257:10 0
18 *259:data_in[1] *257:10 0
19 *259:data_in[2] *257:10 0
20 *259:data_in[3] *257:10 0
21 *259:data_in[4] *259:data_in[5] 0
22 *259:data_in[4] *257:10 0
*RES
1 *258:LO *257:4 1.6 
2 *257:4 *257:6 87.735 
3 *257:6 *257:8 2 
4 *257:8 *257:10 1291.04 
5 *257:10 *259:data_in[5] 1.71347 
6 *259:data_in[5] *259:data_in[6] 0.861333 
7 *259:data_in[6] *259:data_in[7] 0.861333 
8 *259:data_in[7] *259:data_in[8] 0.861333 
9 *259:data_in[8] *259:data_in[9] 0.861333 
10 *259:data_in[9] *259:data_in[10] 7.8162 
11 *259:data_in[10] *259:data_in[11] 0.861333 
12 *259:data_in[11] *259:data_in[12] 0.861333 
13 *259:data_in[12] *259:data_in[13] 0.861333 
14 *259:data_in[13] *259:data_in[14] 0.861333 
15 *259:data_in[14] *259:data_in[15] 0.861333 
*END
