*SPEF "ieee 1481-1999"
*DESIGN "user_project_wrapper"
*DATE "11:11:11 Fri 11 11, 1111"
*VENDOR "OpenRCX"
*PROGRAM "Parallel Extraction"
*VERSION "1.0"
*DESIGN_FLOW "NAME_SCOPE LOCAL" "PIN_CAP NONE"
*DIVIDER /
*DELIMITER :
*BUS_DELIMITER []
*T_UNIT 1 NS
*C_UNIT 1 PF
*R_UNIT 1 OHM
*L_UNIT 1 HENRY

*NAME_MAP
*1 analog_io[0]
*2 analog_io[10]
*3 analog_io[11]
*4 analog_io[12]
*5 analog_io[13]
*6 analog_io[14]
*7 analog_io[15]
*8 analog_io[16]
*9 analog_io[17]
*10 analog_io[18]
*11 analog_io[19]
*12 analog_io[1]
*13 analog_io[20]
*14 analog_io[21]
*15 analog_io[22]
*16 analog_io[23]
*17 analog_io[24]
*18 analog_io[25]
*19 analog_io[26]
*20 analog_io[27]
*21 analog_io[28]
*22 analog_io[2]
*23 analog_io[3]
*24 analog_io[4]
*25 analog_io[5]
*26 analog_io[6]
*27 analog_io[7]
*28 analog_io[8]
*29 analog_io[9]
*30 io_in[0]
*31 io_in[10]
*32 io_in[11]
*33 io_in[12]
*34 io_in[13]
*35 io_in[14]
*36 io_in[15]
*37 io_in[16]
*38 io_in[17]
*39 io_in[18]
*40 io_in[19]
*41 io_in[1]
*42 io_in[20]
*43 io_in[21]
*44 io_in[22]
*45 io_in[23]
*46 io_in[24]
*47 io_in[25]
*48 io_in[26]
*49 io_in[27]
*50 io_in[28]
*51 io_in[29]
*52 io_in[2]
*53 io_in[30]
*54 io_in[31]
*55 io_in[32]
*56 io_in[33]
*57 io_in[34]
*58 io_in[35]
*59 io_in[36]
*60 io_in[37]
*61 io_in[3]
*62 io_in[4]
*63 io_in[5]
*64 io_in[6]
*65 io_in[7]
*66 io_in[8]
*67 io_in[9]
*68 io_oeb[0]
*69 io_oeb[10]
*70 io_oeb[11]
*71 io_oeb[12]
*72 io_oeb[13]
*73 io_oeb[14]
*74 io_oeb[15]
*75 io_oeb[16]
*76 io_oeb[17]
*77 io_oeb[18]
*78 io_oeb[19]
*79 io_oeb[1]
*80 io_oeb[20]
*81 io_oeb[21]
*82 io_oeb[22]
*83 io_oeb[23]
*84 io_oeb[24]
*85 io_oeb[25]
*86 io_oeb[26]
*87 io_oeb[27]
*88 io_oeb[28]
*89 io_oeb[29]
*90 io_oeb[2]
*91 io_oeb[30]
*92 io_oeb[31]
*93 io_oeb[32]
*94 io_oeb[33]
*95 io_oeb[34]
*96 io_oeb[35]
*97 io_oeb[36]
*98 io_oeb[37]
*99 io_oeb[3]
*100 io_oeb[4]
*101 io_oeb[5]
*102 io_oeb[6]
*103 io_oeb[7]
*104 io_oeb[8]
*105 io_oeb[9]
*106 io_out[0]
*107 io_out[10]
*108 io_out[11]
*109 io_out[12]
*110 io_out[13]
*111 io_out[14]
*112 io_out[15]
*113 io_out[16]
*114 io_out[17]
*115 io_out[18]
*116 io_out[19]
*117 io_out[1]
*118 io_out[20]
*119 io_out[21]
*120 io_out[22]
*121 io_out[23]
*122 io_out[24]
*123 io_out[25]
*124 io_out[26]
*125 io_out[27]
*126 io_out[28]
*127 io_out[29]
*128 io_out[2]
*129 io_out[30]
*130 io_out[31]
*131 io_out[32]
*132 io_out[33]
*133 io_out[34]
*134 io_out[35]
*135 io_out[36]
*136 io_out[37]
*137 io_out[3]
*138 io_out[4]
*139 io_out[5]
*140 io_out[6]
*141 io_out[7]
*142 io_out[8]
*143 io_out[9]
*146 wb_clk_i
*147 wb_rst_i
*148 wbs_ack_o
*149 wbs_adr_i[0]
*150 wbs_adr_i[10]
*151 wbs_adr_i[11]
*152 wbs_adr_i[12]
*153 wbs_adr_i[13]
*154 wbs_adr_i[14]
*155 wbs_adr_i[15]
*156 wbs_adr_i[16]
*157 wbs_adr_i[17]
*158 wbs_adr_i[18]
*159 wbs_adr_i[19]
*160 wbs_adr_i[1]
*161 wbs_adr_i[20]
*162 wbs_adr_i[21]
*163 wbs_adr_i[22]
*164 wbs_adr_i[23]
*165 wbs_adr_i[24]
*166 wbs_adr_i[25]
*167 wbs_adr_i[26]
*168 wbs_adr_i[27]
*169 wbs_adr_i[28]
*170 wbs_adr_i[29]
*171 wbs_adr_i[2]
*172 wbs_adr_i[30]
*173 wbs_adr_i[31]
*174 wbs_adr_i[3]
*175 wbs_adr_i[4]
*176 wbs_adr_i[5]
*177 wbs_adr_i[6]
*178 wbs_adr_i[7]
*179 wbs_adr_i[8]
*180 wbs_adr_i[9]
*181 wbs_cyc_i
*182 wbs_dat_i[0]
*183 wbs_dat_i[10]
*184 wbs_dat_i[11]
*185 wbs_dat_i[12]
*186 wbs_dat_i[13]
*187 wbs_dat_i[14]
*188 wbs_dat_i[15]
*189 wbs_dat_i[16]
*190 wbs_dat_i[17]
*191 wbs_dat_i[18]
*192 wbs_dat_i[19]
*193 wbs_dat_i[1]
*194 wbs_dat_i[20]
*195 wbs_dat_i[21]
*196 wbs_dat_i[22]
*197 wbs_dat_i[23]
*198 wbs_dat_i[24]
*199 wbs_dat_i[25]
*200 wbs_dat_i[26]
*201 wbs_dat_i[27]
*202 wbs_dat_i[28]
*203 wbs_dat_i[29]
*204 wbs_dat_i[2]
*205 wbs_dat_i[30]
*206 wbs_dat_i[31]
*207 wbs_dat_i[3]
*208 wbs_dat_i[4]
*209 wbs_dat_i[5]
*210 wbs_dat_i[6]
*211 wbs_dat_i[7]
*212 wbs_dat_i[8]
*213 wbs_dat_i[9]
*214 wbs_dat_o[0]
*215 wbs_dat_o[10]
*216 wbs_dat_o[11]
*217 wbs_dat_o[12]
*218 wbs_dat_o[13]
*219 wbs_dat_o[14]
*220 wbs_dat_o[15]
*221 wbs_dat_o[16]
*222 wbs_dat_o[17]
*223 wbs_dat_o[18]
*224 wbs_dat_o[19]
*225 wbs_dat_o[1]
*226 wbs_dat_o[20]
*227 wbs_dat_o[21]
*228 wbs_dat_o[22]
*229 wbs_dat_o[23]
*230 wbs_dat_o[24]
*231 wbs_dat_o[25]
*232 wbs_dat_o[26]
*233 wbs_dat_o[27]
*234 wbs_dat_o[28]
*235 wbs_dat_o[29]
*236 wbs_dat_o[2]
*237 wbs_dat_o[30]
*238 wbs_dat_o[31]
*239 wbs_dat_o[3]
*240 wbs_dat_o[4]
*241 wbs_dat_o[5]
*242 wbs_dat_o[6]
*243 wbs_dat_o[7]
*244 wbs_dat_o[8]
*245 wbs_dat_o[9]
*246 wbs_sel_i[0]
*247 wbs_sel_i[1]
*248 wbs_sel_i[2]
*249 wbs_sel_i[3]
*250 wbs_stb_i
*251 wbs_we_i
*252 x1\[0\]
*253 x1\[10\]
*254 x1\[11\]
*255 x1\[12\]
*256 x1\[13\]
*257 x1\[14\]
*258 x1\[15\]
*259 x1\[1\]
*260 x1\[2\]
*261 x1\[3\]
*262 x1\[4\]
*263 x1\[5\]
*264 x1\[6\]
*265 x1\[7\]
*266 x1\[8\]
*267 x1\[9\]
*268 x2\[0\]
*269 x2\[10\]
*270 x2\[11\]
*271 x2\[12\]
*272 x2\[13\]
*273 x2\[14\]
*274 x2\[15\]
*275 x2\[1\]
*276 x2\[2\]
*277 x2\[3\]
*278 x2\[4\]
*279 x2\[5\]
*280 x2\[6\]
*281 x2\[7\]
*282 x2\[8\]
*283 x2\[9\]
*284 x3\[0\]
*285 x3\[10\]
*286 x3\[11\]
*287 x3\[12\]
*288 x3\[13\]
*289 x3\[14\]
*290 x3\[15\]
*291 x3\[1\]
*292 x3\[2\]
*293 x3\[3\]
*294 x3\[4\]
*295 x3\[5\]
*296 x3\[6\]
*297 x3\[7\]
*298 x3\[8\]
*299 x3\[9\]
*300 x4\[0\]
*301 x4\[10\]
*302 x4\[11\]
*303 x4\[12\]
*304 x4\[13\]
*305 x4\[14\]
*306 x4\[15\]
*307 x4\[1\]
*308 x4\[2\]
*309 x4\[3\]
*310 x4\[4\]
*311 x4\[5\]
*312 x4\[6\]
*313 x4\[7\]
*314 x4\[8\]
*315 x4\[9\]
*316 x5\[0\]
*317 x5\[10\]
*318 x5\[11\]
*319 x5\[12\]
*320 x5\[13\]
*321 x5\[14\]
*322 x5\[15\]
*323 x5\[1\]
*324 x5\[2\]
*325 x5\[3\]
*326 x5\[4\]
*327 x5\[5\]
*328 x5\[6\]
*329 x5\[7\]
*330 x5\[8\]
*331 x5\[9\]
*332 mprj1
*333 mprj2
*334 mprj3
*335 mprj4
*336 mprj5
*337 ro1
*338 ro10
*339 ro11
*340 ro12
*341 ro13
*342 ro14
*343 ro15
*344 ro16
*345 ro2
*346 ro3
*347 ro4
*348 ro5
*349 ro6
*350 ro7
*351 ro8
*352 ro9

*PORTS
analog_io[0] I
analog_io[10] I
analog_io[11] I
analog_io[12] I
analog_io[13] I
analog_io[14] I
analog_io[15] I
analog_io[16] I
analog_io[17] I
analog_io[18] I
analog_io[19] I
analog_io[1] I
analog_io[20] I
analog_io[21] I
analog_io[22] I
analog_io[23] I
analog_io[24] I
analog_io[25] I
analog_io[26] I
analog_io[27] I
analog_io[28] I
analog_io[2] I
analog_io[3] I
analog_io[4] I
analog_io[5] I
analog_io[6] I
analog_io[7] I
analog_io[8] I
analog_io[9] I
io_in[0] I
io_in[10] I
io_in[11] I
io_in[12] I
io_in[13] I
io_in[14] I
io_in[15] I
io_in[16] I
io_in[17] I
io_in[18] I
io_in[19] I
io_in[1] I
io_in[20] I
io_in[21] I
io_in[22] I
io_in[23] I
io_in[24] I
io_in[25] I
io_in[26] I
io_in[27] I
io_in[28] I
io_in[29] I
io_in[2] I
io_in[30] I
io_in[31] I
io_in[32] I
io_in[33] I
io_in[34] I
io_in[35] I
io_in[36] I
io_in[37] I
io_in[3] I
io_in[4] I
io_in[5] I
io_in[6] I
io_in[7] I
io_in[8] I
io_in[9] I
io_oeb[0] O
io_oeb[10] O
io_oeb[11] O
io_oeb[12] O
io_oeb[13] O
io_oeb[14] O
io_oeb[15] O
io_oeb[16] O
io_oeb[17] O
io_oeb[18] O
io_oeb[19] O
io_oeb[1] O
io_oeb[20] O
io_oeb[21] O
io_oeb[22] O
io_oeb[23] O
io_oeb[24] O
io_oeb[25] O
io_oeb[26] O
io_oeb[27] O
io_oeb[28] O
io_oeb[29] O
io_oeb[2] O
io_oeb[30] O
io_oeb[31] O
io_oeb[32] O
io_oeb[33] O
io_oeb[34] O
io_oeb[35] O
io_oeb[36] O
io_oeb[37] O
io_oeb[3] O
io_oeb[4] O
io_oeb[5] O
io_oeb[6] O
io_oeb[7] O
io_oeb[8] O
io_oeb[9] O
io_out[0] O
io_out[10] O
io_out[11] O
io_out[12] O
io_out[13] O
io_out[14] O
io_out[15] O
io_out[16] O
io_out[17] O
io_out[18] O
io_out[19] O
io_out[1] O
io_out[20] O
io_out[21] O
io_out[22] O
io_out[23] O
io_out[24] O
io_out[25] O
io_out[26] O
io_out[27] O
io_out[28] O
io_out[29] O
io_out[2] O
io_out[30] O
io_out[31] O
io_out[32] O
io_out[33] O
io_out[34] O
io_out[35] O
io_out[36] O
io_out[37] O
io_out[3] O
io_out[4] O
io_out[5] O
io_out[6] O
io_out[7] O
io_out[8] O
io_out[9] O
wb_clk_i I
wb_rst_i I
wbs_ack_o O
wbs_adr_i[0] I
wbs_adr_i[10] I
wbs_adr_i[11] I
wbs_adr_i[12] I
wbs_adr_i[13] I
wbs_adr_i[14] I
wbs_adr_i[15] I
wbs_adr_i[16] I
wbs_adr_i[17] I
wbs_adr_i[18] I
wbs_adr_i[19] I
wbs_adr_i[1] I
wbs_adr_i[20] I
wbs_adr_i[21] I
wbs_adr_i[22] I
wbs_adr_i[23] I
wbs_adr_i[24] I
wbs_adr_i[25] I
wbs_adr_i[26] I
wbs_adr_i[27] I
wbs_adr_i[28] I
wbs_adr_i[29] I
wbs_adr_i[2] I
wbs_adr_i[30] I
wbs_adr_i[31] I
wbs_adr_i[3] I
wbs_adr_i[4] I
wbs_adr_i[5] I
wbs_adr_i[6] I
wbs_adr_i[7] I
wbs_adr_i[8] I
wbs_adr_i[9] I
wbs_cyc_i I
wbs_dat_i[0] I
wbs_dat_i[10] I
wbs_dat_i[11] I
wbs_dat_i[12] I
wbs_dat_i[13] I
wbs_dat_i[14] I
wbs_dat_i[15] I
wbs_dat_i[16] I
wbs_dat_i[17] I
wbs_dat_i[18] I
wbs_dat_i[19] I
wbs_dat_i[1] I
wbs_dat_i[20] I
wbs_dat_i[21] I
wbs_dat_i[22] I
wbs_dat_i[23] I
wbs_dat_i[24] I
wbs_dat_i[25] I
wbs_dat_i[26] I
wbs_dat_i[27] I
wbs_dat_i[28] I
wbs_dat_i[29] I
wbs_dat_i[2] I
wbs_dat_i[30] I
wbs_dat_i[31] I
wbs_dat_i[3] I
wbs_dat_i[4] I
wbs_dat_i[5] I
wbs_dat_i[6] I
wbs_dat_i[7] I
wbs_dat_i[8] I
wbs_dat_i[9] I
wbs_dat_o[0] O
wbs_dat_o[10] O
wbs_dat_o[11] O
wbs_dat_o[12] O
wbs_dat_o[13] O
wbs_dat_o[14] O
wbs_dat_o[15] O
wbs_dat_o[16] O
wbs_dat_o[17] O
wbs_dat_o[18] O
wbs_dat_o[19] O
wbs_dat_o[1] O
wbs_dat_o[20] O
wbs_dat_o[21] O
wbs_dat_o[22] O
wbs_dat_o[23] O
wbs_dat_o[24] O
wbs_dat_o[25] O
wbs_dat_o[26] O
wbs_dat_o[27] O
wbs_dat_o[28] O
wbs_dat_o[29] O
wbs_dat_o[2] O
wbs_dat_o[30] O
wbs_dat_o[31] O
wbs_dat_o[3] O
wbs_dat_o[4] O
wbs_dat_o[5] O
wbs_dat_o[6] O
wbs_dat_o[7] O
wbs_dat_o[8] O
wbs_dat_o[9] O
wbs_sel_i[0] I
wbs_sel_i[1] I
wbs_sel_i[2] I
wbs_sel_i[3] I
wbs_stb_i I
wbs_we_i I

*D_NET *30 0.422376
*CONN
*P io_in[0] I
*I *344:s1 I *D sky130_osu_ring_oscillator_mpr2ya_8_b0r2
*I *341:s1 I *D sky130_osu_ring_oscillator_mpr2ea_8_b0r2
*I *347:s1 I *D sky130_osu_ring_oscillator_mpr2ct_8_b0r1
*I *345:s1 I *D sky130_osu_ring_oscillator_mpr2at_8_b0r1
*I *337:s1 I *D sky130_osu_ring_oscillator_mpr2aa_8_b0r1
*I *346:s1 I *D sky130_osu_ring_oscillator_mpr2ca_8_b0r1
*I *348:s1 I *D sky130_osu_ring_oscillator_mpr2ea_8_b0r1
*I *349:s1 I *D sky130_osu_ring_oscillator_mpr2et_8_b0r1
*I *350:s1 I *D sky130_osu_ring_oscillator_mpr2xa_8_b0r1
*I *351:s1 I *D sky130_osu_ring_oscillator_mpr2ya_8_b0r1
*I *352:s1 I *D sky130_osu_ring_oscillator_mpr2aa_8_b0r2
*I *338:s1 I *D sky130_osu_ring_oscillator_mpr2at_8_b0r2
*I *339:s1 I *D sky130_osu_ring_oscillator_mpr2ca_8_b0r2
*I *340:s1 I *D sky130_osu_ring_oscillator_mpr2ct_8_b0r2
*I *342:s1 I *D sky130_osu_ring_oscillator_mpr2et_8_b0r2
*I *343:s1 I *D sky130_osu_ring_oscillator_mpr2xa_8_b0r2
*CAP
1 io_in[0] 0.0689495
2 *344:s1 0.000651032
3 *341:s1 0.000461437
4 *347:s1 0.000157206
5 *345:s1 0.000518504
6 *337:s1 0.000726315
7 *346:s1 0.000187083
8 *348:s1 0.000407593
9 *349:s1 0.000544695
10 *350:s1 0.000424301
11 *351:s1 0.00036044
12 *352:s1 0.000677479
13 *338:s1 0.0019188
14 *339:s1 0.000266705
15 *340:s1 0.000142322
16 *342:s1 0.000539758
17 *343:s1 0.000332011
18 *30:246 0.00339518
19 *30:244 0.00275105
20 *30:240 0.000600682
21 *30:238 0.00481757
22 *30:224 0.00970828
23 *30:222 0.00945445
24 *30:207 0.00750313
25 *30:205 0.00321218
26 *30:188 0.00318016
27 *30:186 0.00303825
28 *30:165 0.0025948
29 *30:161 0.00306521
30 *30:150 0.00562172
31 *30:138 0.00693424
32 *30:136 0.00354045
33 *30:132 0.000830597
34 *30:114 0.00433853
35 *30:112 0.0027131
36 *30:99 0.0026302
37 *30:87 0.0055726
38 *30:67 0.00427054
39 *30:61 0.00435133
40 *30:59 0.00392565
41 *30:57 0.00265145
42 *30:55 0.00430171
43 *30:42 0.0032145
44 *30:40 0.00165676
45 *30:23 0.00382785
46 *30:21 0.00333011
47 *30:13 0.0034027
48 *30:9 0.0411175
49 *30:7 0.0388644
50 *30:5 0.0689495
51 *337:s1 *337:start 0
52 *338:s1 *267:11 0
53 *342:s1 *342:start 9.58181e-05
54 *346:s1 *346:start 3.67172e-06
55 *349:s1 *349:start 5.49544e-05
56 *350:s1 *350:start 1.29975e-05
57 *351:s1 *351:start 1.19694e-05
58 *30:9 *62:33 0.00118638
59 *30:13 *41:13 0.00517433
60 *30:13 *41:21 0.00185148
61 *30:21 *41:21 0.000508721
62 *30:23 *41:23 0.0036843
63 *30:40 *41:23 0.0004355
64 *30:40 *41:53 0.000274976
65 *30:40 *52:73 2.35039e-05
66 *30:42 *41:53 0.00642935
67 *30:42 *52:75 0.00643293
68 *30:55 *41:53 0.000266951
69 *30:55 *52:75 0.000704554
70 *30:61 *41:102 0.00692627
71 *30:99 *41:137 0.00391768
72 *30:136 *338:start 5.33005e-05
73 *30:138 *41:165 0.000822417
74 *30:138 *41:189 0.00649197
75 *30:150 *41:189 0.000919746
76 *30:150 *41:217 0.00692595
77 *30:161 *41:217 0.00048353
78 *30:161 *41:245 0.00442894
79 *30:165 *41:245 0.00142607
80 *30:186 *41:245 0.000268722
81 *30:186 *41:270 0.00047014
82 *30:186 *41:272 0.00136682
83 *30:188 *41:272 0.00504414
84 *30:205 *41:272 0.000779628
85 *30:205 *41:299 0.000974664
86 *30:207 *41:299 0.00135955
87 *30:207 *41:309 0.00236187
88 *30:222 *41:309 0.000254427
89 *30:244 *345:start 4.70588e-05
90 *30:246 *41:389 0.00326938
*RES
1 io_in[0] *30:5 213.377 
2 *30:5 *30:7 3.41 
3 *30:7 *30:9 778.482 
4 *30:9 *30:13 14.3391 
5 *30:13 *30:21 5.243 
6 *30:21 *30:23 82.8482 
7 *30:23 *343:s1 20.3357 
8 *30:23 *30:40 22.8421 
9 *30:40 *30:42 78.9018 
10 *30:42 *342:s1 24.5143 
11 *30:42 *30:55 39.0089 
12 *30:55 *30:57 54.2143 
13 *30:57 *30:59 0.535714 
14 *30:59 *30:61 96.6607 
15 *30:61 *30:67 9.2452 
16 *30:67 *340:s1 7.23214 
17 *30:67 *30:87 65.6964 
18 *30:87 *30:99 45.3824 
19 *30:99 *339:s1 4.2513 
20 *30:99 *30:112 3.41 
21 *30:112 *30:114 55.4464 
22 *30:114 *338:s1 33.7902 
23 *338:s1 *30:132 10.2723 
24 *30:132 *30:136 14.8929 
25 *30:136 *30:138 91.1964 
26 *30:138 *352:s1 17.6161 
27 *30:138 *30:150 97.875 
28 *30:150 *351:s1 20.7554 
29 *30:150 *30:161 61.2232 
30 *30:161 *30:165 31.8482 
31 *30:165 *350:s1 21.5804 
32 *30:165 *30:186 42.9464 
33 *30:186 *30:188 61.75 
34 *30:188 *349:s1 24.8312 
35 *30:188 *30:205 22.4196 
36 *30:205 *30:207 72.5804 
37 *30:207 *348:s1 21.8982 
38 *30:207 *30:222 92.5625 
39 *30:222 *30:224 93.4732 
40 *30:224 *346:s1 8.20982 
41 *30:224 *30:238 95.75 
42 *30:238 *30:240 4.5 
43 *30:240 *30:244 6.26786 
44 *30:244 *30:246 77.8393 
45 *30:246 *337:s1 18.1161 
46 *30:240 *345:s1 19.5455 
47 *30:222 *347:s1 7.74554 
48 *30:59 *341:s1 22.4062 
49 *30:13 *344:s1 25.1151 
*END

*D_NET *41 0.443134
*CONN
*P io_in[1] I
*I *344:s2 I *D sky130_osu_ring_oscillator_mpr2ya_8_b0r2
*I *342:s2 I *D sky130_osu_ring_oscillator_mpr2et_8_b0r2
*I *346:s2 I *D sky130_osu_ring_oscillator_mpr2ca_8_b0r1
*I *345:s2 I *D sky130_osu_ring_oscillator_mpr2at_8_b0r1
*I *337:s2 I *D sky130_osu_ring_oscillator_mpr2aa_8_b0r1
*I *347:s2 I *D sky130_osu_ring_oscillator_mpr2ct_8_b0r1
*I *348:s2 I *D sky130_osu_ring_oscillator_mpr2ea_8_b0r1
*I *349:s2 I *D sky130_osu_ring_oscillator_mpr2et_8_b0r1
*I *350:s2 I *D sky130_osu_ring_oscillator_mpr2xa_8_b0r1
*I *351:s2 I *D sky130_osu_ring_oscillator_mpr2ya_8_b0r1
*I *352:s2 I *D sky130_osu_ring_oscillator_mpr2aa_8_b0r2
*I *338:s2 I *D sky130_osu_ring_oscillator_mpr2at_8_b0r2
*I *339:s2 I *D sky130_osu_ring_oscillator_mpr2ca_8_b0r2
*I *340:s2 I *D sky130_osu_ring_oscillator_mpr2ct_8_b0r2
*I *341:s2 I *D sky130_osu_ring_oscillator_mpr2ea_8_b0r2
*I *343:s2 I *D sky130_osu_ring_oscillator_mpr2xa_8_b0r2
*CAP
1 io_in[1] 0.0609744
2 *344:s2 0.00066072
3 *342:s2 0.000423564
4 *346:s2 0.000434611
5 *345:s2 0.00220399
6 *337:s2 0.00196277
7 *347:s2 0.00225902
8 *348:s2 0.000345484
9 *349:s2 0.00233041
10 *350:s2 0.00141123
11 *351:s2 0.0018911
12 *352:s2 0.00199159
13 *338:s2 0.00225262
14 *339:s2 0.000458271
15 *340:s2 0.00177904
16 *341:s2 0.000305963
17 *343:s2 0.00185658
18 *41:389 0.00473203
19 *41:387 0.00276926
20 *41:385 0.00251699
21 *41:381 0.0057223
22 *41:379 0.00720667
23 *41:373 0.00624317
24 *41:371 0.00442601
25 *41:329 0.00447267
26 *41:309 0.00565361
27 *41:299 0.00454076
28 *41:272 0.00695431
29 *41:270 0.00320519
30 *41:245 0.00494437
31 *41:240 0
32 *41:217 0.00803412
33 *41:189 0.00808668
34 *41:165 0.00783002
35 *41:163 0.00367604
36 *41:159 0.00334273
37 *41:137 0.00461087
38 *41:125 0.00473288
39 *41:102 0.00789359
40 *41:100 0.00537466
41 *41:75 0.00219141
42 *41:65 0.00436595
43 *41:63 0.00420972
44 *41:61 0.00218977
45 *41:53 0.00448519
46 *41:23 0.00754433
47 *41:21 0.00408765
48 *41:13 0.00848456
49 *41:9 0.0359531
50 *41:7 0.0292481
51 *41:5 0.0609744
52 *343:s2 *52:73 0.000571611
53 *347:s2 *277:16 0
54 *349:s2 *278:7 0
55 *41:13 *344:s3 0.00194676
56 *41:13 *52:13 0.00911629
57 *41:53 *52:75 0.00013751
58 *41:61 *52:79 0
59 *41:65 *271:12 0
60 *41:379 *260:11 0
61 *30:13 *41:13 0.00517433
62 *30:13 *41:21 0.00185148
63 *30:21 *41:21 0.000508721
64 *30:23 *41:23 0.0036843
65 *30:40 *41:23 0.0004355
66 *30:40 *41:53 0.000274976
67 *30:42 *41:53 0.00642935
68 *30:55 *41:53 0.000266951
69 *30:61 *41:102 0.00692627
70 *30:99 *41:137 0.00391768
71 *30:138 *41:165 0.000822417
72 *30:138 *41:189 0.00649197
73 *30:150 *41:189 0.000919746
74 *30:150 *41:217 0.00692595
75 *30:161 *41:217 0.00048353
76 *30:161 *41:245 0.00442894
77 *30:165 *41:245 0.00142607
78 *30:186 *41:245 0.000268722
79 *30:186 *41:270 0.00047014
80 *30:186 *41:272 0.00136682
81 *30:188 *41:272 0.00504414
82 *30:205 *41:272 0.000779628
83 *30:205 *41:299 0.000974664
84 *30:207 *41:299 0.00135955
85 *30:207 *41:309 0.00236187
86 *30:222 *41:309 0.000254427
87 *30:246 *41:389 0.00326938
*RES
1 io_in[1] *41:5 188.514 
2 *41:5 *41:7 3.41 
3 *41:7 *41:9 601.804 
4 *41:9 *41:13 36.3915 
5 *41:13 *41:21 8.30427 
6 *41:21 *41:23 89.9821 
7 *41:23 *343:s2 28.2024 
8 *41:23 *41:53 88.1607 
9 *41:53 *41:61 8.6646 
10 *41:61 *41:63 3.41 
11 *41:63 *41:65 86.3393 
12 *41:65 *341:s2 3.37946 
13 *341:s2 *41:75 3.1875 
14 *41:75 *41:100 27.5672 
15 *41:100 *41:102 96.0536 
16 *41:102 *340:s2 36.741 
17 *41:102 *41:125 55.4107 
18 *41:125 *41:137 42.9142 
19 *41:137 *339:s2 11.4241 
20 *41:137 *41:159 48.4636 
21 *41:159 *41:163 6.77207 
22 *41:163 *41:165 53.5536 
23 *41:165 *338:s2 27.4371 
24 *41:165 *41:189 92.4107 
25 *41:189 *352:s2 26.6699 
26 *41:189 *41:217 92.4107 
27 *41:217 *351:s2 24.8306 
28 *351:s2 *41:240 0.194444 
29 *41:217 *41:245 92.4107 
30 *41:245 *350:s2 16.0939 
31 *41:245 *41:270 20.6518 
32 *41:270 *41:272 88.9196 
33 *41:272 *349:s2 33.5341 
34 *41:272 *41:299 55.0357 
35 *41:299 *41:309 45.0686 
36 *41:309 *348:s2 10.8783 
37 *41:309 *41:329 53.8571 
38 *41:329 *347:s2 45.1897 
39 *347:s2 *41:371 9.82971 
40 *41:371 *41:373 82.0893 
41 *41:373 *41:379 12.3441 
42 *41:379 *41:381 111.232 
43 *41:381 *41:385 4.39387 
44 *41:385 *41:387 3.41 
45 *41:387 *41:389 79.6607 
46 *41:389 *337:s2 14.9714 
47 *41:385 *345:s2 24.2076 
48 *41:373 *346:s2 13.0312 
49 *41:61 *342:s2 7.43754 
50 *41:13 *344:s2 21.1658 
*END

*D_NET *52 0.458869
*CONN
*P io_in[2] I
*I *346:s3 I *D sky130_osu_ring_oscillator_mpr2ca_8_b0r1
*I *337:s3 I *D sky130_osu_ring_oscillator_mpr2aa_8_b0r1
*I *345:s3 I *D sky130_osu_ring_oscillator_mpr2at_8_b0r1
*I *347:s3 I *D sky130_osu_ring_oscillator_mpr2ct_8_b0r1
*I *348:s3 I *D sky130_osu_ring_oscillator_mpr2ea_8_b0r1
*I *349:s3 I *D sky130_osu_ring_oscillator_mpr2et_8_b0r1
*I *350:s3 I *D sky130_osu_ring_oscillator_mpr2xa_8_b0r1
*I *351:s3 I *D sky130_osu_ring_oscillator_mpr2ya_8_b0r1
*I *352:s3 I *D sky130_osu_ring_oscillator_mpr2aa_8_b0r2
*I *338:s3 I *D sky130_osu_ring_oscillator_mpr2at_8_b0r2
*I *339:s3 I *D sky130_osu_ring_oscillator_mpr2ca_8_b0r2
*I *340:s3 I *D sky130_osu_ring_oscillator_mpr2ct_8_b0r2
*I *341:s3 I *D sky130_osu_ring_oscillator_mpr2ea_8_b0r2
*I *342:s3 I *D sky130_osu_ring_oscillator_mpr2et_8_b0r2
*I *343:s3 I *D sky130_osu_ring_oscillator_mpr2xa_8_b0r2
*I *344:s3 I *D sky130_osu_ring_oscillator_mpr2ya_8_b0r2
*CAP
1 io_in[2] 0.0573326
2 *346:s3 0.000660582
3 *337:s3 0.00263407
4 *345:s3 0.00212491
5 *347:s3 0.000742469
6 *348:s3 0.0025075
7 *349:s3 0.00196402
8 *350:s3 0.00221185
9 *351:s3 0.00173515
10 *352:s3 0.00248265
11 *338:s3 0.00241668
12 *339:s3 0.00214062
13 *340:s3 0.00214432
14 *341:s3 0.00247938
15 *342:s3 0.000609799
16 *343:s3 0.000655333
17 *344:s3 0.00209564
18 *52:475 0.00552767
19 *52:473 0.0028936
20 *52:449 0.00320896
21 *52:437 0.00380668
22 *52:435 0.00512716
23 *52:425 0.00356322
24 *52:421 0.00375663
25 *52:419 0.00325851
26 *52:398 0.00254844
27 *52:394 0.00529569
28 *52:392 0.00397192
29 *52:362 0.0029897
30 *52:360 0.00303497
31 *52:334 0.00552523
32 *52:326 0.00482075
33 *52:324 0.00517028
34 *52:298 0.00308763
35 *52:296 0.00467242
36 *52:268 0.0103355
37 *52:240 0.00670815
38 *52:234 0.00338509
39 *52:232 0.00308754
40 *52:208 0.00278957
41 *52:204 0.00274034
42 *52:202 0.00338375
43 *52:169 0.00672072
44 *52:164 0
45 *52:145 0.00614122
46 *52:141 0.00382229
47 *52:139 0.00364361
48 *52:113 0.0027338
49 *52:111 0.00463422
50 *52:109 0.00617422
51 *52:79 0.00499466
52 *52:75 0.00563119
53 *52:73 0.00494008
54 *52:45 0.00480396
55 *52:39 0.00505561
56 *52:37 0.00306073
57 *52:13 0.0150051
58 *52:11 0.0129095
59 *52:9 0.0206673
60 *52:7 0.0206673
61 *52:5 0.0573326
62 *338:s3 *314:9 0
63 *339:s3 *339:s4 0.00214586
64 *340:s3 *340:s4 0.00181756
65 *345:s3 *300:15 0.000361922
66 *346:s3 *292:11 0
67 *348:s3 *348:s4 0
68 *348:s3 *61:359 0
69 *349:s3 *294:7 0
70 *349:s3 *294:11 0.00182736
71 *350:s3 *61:310 0
72 *350:s3 *62:263 0
73 *351:s3 *351:s4 0
74 *351:s3 *61:256 0.000455776
75 *351:s3 *296:10 0.000890556
76 *352:s3 *62:202 0
77 *52:39 *62:33 0.00613389
78 *52:39 *62:51 0.000605109
79 *52:39 *62:53 0
80 *52:45 *61:59 0
81 *52:109 *61:107 0.000411411
82 *52:111 *61:109 0
83 *52:111 *62:103 0
84 *52:141 *61:125 0
85 *52:141 *62:103 0
86 *52:141 *62:107 0.00198582
87 *52:141 *62:115 0.000607207
88 *52:141 *62:127 0.000513533
89 *52:145 *61:153 4.6025e-06
90 *52:145 *62:127 0
91 *52:169 *61:153 0.00253339
92 *52:169 *61:159 0
93 *52:169 *62:155 0.000342054
94 *52:169 *317:17 1.05524e-05
95 *52:202 *335:data_in[9] 0.000370699
96 *52:204 *61:192 0.000493738
97 *52:204 *61:210 0.00107962
98 *52:204 *62:157 0.0057183
99 *52:204 *271:18 0.000663247
100 *52:204 *312:21 0
101 *52:208 *61:210 0
102 *52:208 *311:18 7.24599e-05
103 *52:208 *312:25 0.000258842
104 *52:208 *314:9 0
105 *52:234 *61:212 0.00682839
106 *52:234 *62:202 0
107 *52:234 *311:14 0
108 *52:268 *351:s5 0
109 *52:268 *61:256 0.00233696
110 *52:268 *62:202 0
111 *52:268 *62:212 0
112 *52:268 *62:234 0
113 *52:296 *350:s5 0
114 *52:296 *62:234 0
115 *52:296 *62:265 0
116 *52:326 *62:287 0.000401098
117 *52:326 *276:13 0.000842572
118 *52:326 *277:18 0.000795149
119 *52:326 *324:10 0
120 *52:334 *61:355 0.000162153
121 *52:334 *278:11 0
122 *52:334 *291:25 4.92016e-05
123 *52:334 *294:11 0.000307854
124 *52:360 *61:355 0.00378767
125 *52:360 *326:17 4.36671e-05
126 *52:392 *62:307 0.000458835
127 *52:392 *62:309 0
128 *52:392 *291:21 0
129 *52:394 *61:389 0.00311394
130 *52:394 *62:309 0
131 *52:394 *62:327 0.000242471
132 *52:394 *291:21 0
133 *52:394 *325:15 5.45706e-06
134 *52:398 *347:s4 0
135 *52:398 *61:389 0
136 *52:398 *260:17 0
137 *52:425 *292:11 0
138 *52:435 *62:327 0
139 *52:435 *62:343 0
140 *52:435 *276:11 0
141 *52:435 *291:21 0
142 *52:437 *61:444 0.00607371
143 *52:437 *62:343 0
144 *52:437 *291:21 0.000371505
145 *52:449 *61:444 8.48078e-05
146 *52:449 *61:456 0.0007746
147 *52:449 *62:345 2.22526e-05
148 *52:449 *300:15 0.000169152
149 *52:449 *323:19 2.06725e-05
150 *52:475 *337:s4 8.54136e-05
151 *52:475 *61:475 0.0030899
152 *343:s2 *52:73 0.000571611
153 *30:40 *52:73 2.35039e-05
154 *30:42 *52:75 0.00643293
155 *30:55 *52:75 0.000704554
156 *41:13 *344:s3 0.00194676
157 *41:13 *52:13 0.00911629
158 *41:53 *52:75 0.00013751
159 *41:61 *52:79 0
*RES
1 io_in[2] *52:5 165.813 
2 *52:5 *52:7 3.41 
3 *52:7 *52:9 425.125 
4 *52:9 *52:11 3.41 
5 *52:11 *52:13 47.611 
6 *52:13 *344:s3 28.0358 
7 *52:13 *52:37 3.41 
8 *52:37 *52:39 89.9821 
9 *52:39 *52:45 12.7765 
10 *52:45 *343:s3 17.5542 
11 *52:45 *52:73 16.874 
12 *52:73 *52:75 90.5893 
13 *52:75 *52:79 11.9609 
14 *52:79 *342:s3 20.1606 
15 *52:79 *52:109 8.63013 
16 *52:109 *52:111 94.2321 
17 *52:111 *52:113 3.41 
18 *52:113 *341:s3 24.7196 
19 *52:113 *52:139 4.1056 
20 *52:139 *52:141 90.5893 
21 *52:141 *52:145 8.78571 
22 *52:145 *340:s3 29.7746 
23 *340:s3 *52:164 0.194444 
24 *52:145 *52:169 93.0179 
25 *52:169 *339:s3 29.3315 
26 *52:169 *52:202 22.2726 
27 *52:202 *52:204 85.125 
28 *52:204 *52:208 4.89833 
29 *52:208 *338:s3 28.0406 
30 *52:208 *52:232 3.41 
31 *52:232 *52:234 93.625 
32 *52:234 *52:240 7.58767 
33 *52:240 *352:s3 32.3644 
34 *52:240 *52:268 86.9464 
35 *52:268 *351:s3 26.0634 
36 *52:268 *52:296 94.2321 
37 *52:296 *52:298 3.41 
38 *52:298 *350:s3 21.9268 
39 *52:298 *52:324 6.12347 
40 *52:324 *52:326 97.2679 
41 *52:326 *52:334 12.2924 
42 *52:334 *349:s3 32.1078 
43 *52:334 *52:360 88.7679 
44 *52:360 *52:362 3.41 
45 *52:362 *348:s3 24.7564 
46 *52:362 *52:392 10.5884 
47 *52:392 *52:394 87.2679 
48 *52:394 *52:398 8.93407 
49 *52:398 *347:s3 17.8701 
50 *52:398 *52:419 3.41 
51 *52:419 *52:421 67 
52 *52:421 *52:425 9.67857 
53 *52:425 *52:435 23.096 
54 *52:435 *52:437 86.375 
55 *52:437 *52:449 24.5042 
56 *52:449 *345:s3 25.1161 
57 *52:449 *52:473 3.41 
58 *52:473 *52:475 80.875 
59 *52:475 *337:s3 27.7065 
60 *52:425 *346:s3 17.5938 
*END

*D_NET *61 0.382113
*CONN
*P io_in[3] I
*I *337:s4 I *D sky130_osu_ring_oscillator_mpr2aa_8_b0r1
*I *345:s4 I *D sky130_osu_ring_oscillator_mpr2at_8_b0r1
*I *346:s4 I *D sky130_osu_ring_oscillator_mpr2ca_8_b0r1
*I *347:s4 I *D sky130_osu_ring_oscillator_mpr2ct_8_b0r1
*I *348:s4 I *D sky130_osu_ring_oscillator_mpr2ea_8_b0r1
*I *349:s4 I *D sky130_osu_ring_oscillator_mpr2et_8_b0r1
*I *350:s4 I *D sky130_osu_ring_oscillator_mpr2xa_8_b0r1
*I *351:s4 I *D sky130_osu_ring_oscillator_mpr2ya_8_b0r1
*I *352:s4 I *D sky130_osu_ring_oscillator_mpr2aa_8_b0r2
*I *338:s4 I *D sky130_osu_ring_oscillator_mpr2at_8_b0r2
*I *339:s4 I *D sky130_osu_ring_oscillator_mpr2ca_8_b0r2
*I *340:s4 I *D sky130_osu_ring_oscillator_mpr2ct_8_b0r2
*I *341:s4 I *D sky130_osu_ring_oscillator_mpr2ea_8_b0r2
*I *342:s4 I *D sky130_osu_ring_oscillator_mpr2et_8_b0r2
*I *343:s4 I *D sky130_osu_ring_oscillator_mpr2xa_8_b0r2
*I *344:s4 I *D sky130_osu_ring_oscillator_mpr2ya_8_b0r2
*CAP
1 io_in[3] 0.000854085
2 *337:s4 0.00120882
3 *345:s4 0.000960518
4 *346:s4 0.00152607
5 *347:s4 0.00186044
6 *348:s4 0.000582797
7 *349:s4 0.00162695
8 *350:s4 0.000161765
9 *351:s4 0.000615813
10 *352:s4 0.000345127
11 *338:s4 0.00106357
12 *339:s4 0.0014847
13 *340:s4 0.0014524
14 *341:s4 0.00110232
15 *342:s4 0.00195131
16 *343:s4 0.00016868
17 *344:s4 0.000441261
18 *61:475 0.00376336
19 *61:473 0.00255454
20 *61:456 0.00132906
21 *61:444 0.00139283
22 *61:442 0.00162623
23 *61:415 0.00520906
24 *61:413 0.00308105
25 *61:389 0.00356035
26 *61:383 0.00295104
27 *61:377 0.00416957
28 *61:375 0.00291844
29 *61:359 0.001466
30 *61:355 0.00381779
31 *61:353 0.0041717
32 *61:320 0.00301312
33 *61:314 0.00458285
34 *61:310 0.00239919
35 *61:282 0.00459075
36 *61:256 0.00756923
37 *61:238 0.00603103
38 *61:218 0.00463384
39 *61:212 0.00404111
40 *61:210 0.00356911
41 *61:192 0.00230354
42 *61:184 0.00290782
43 *61:182 0.00282487
44 *61:159 0.00319251
45 *61:153 0.00313294
46 *61:151 0.00183241
47 *61:129 0.00166715
48 *61:125 0.00487556
49 *61:123 0.00524894
50 *61:109 0.00560396
51 *61:107 0.00519339
52 *61:76 2.96927e-06
53 *61:61 0.00455703
54 *61:59 0.00453881
55 *61:33 0.00478664
56 *61:31 0.0039677
57 *61:13 0.0695945
58 *61:11 0.0691532
59 *61:9 0.0106707
60 *61:7 0.0115248
61 *337:s4 *316:15 0
62 *338:s4 *62:165 0
63 *339:s4 *62:155 3.7143e-05
64 *341:s4 *303:12 2.75959e-05
65 *341:s4 *319:7 0
66 *342:s4 *256:16 0.00099807
67 *342:s4 *304:12 0
68 *345:s4 *62:353 0.000850085
69 *345:s4 *300:15 0.000398004
70 *349:s4 *62:265 0
71 *349:s4 *311:12 0
72 *61:9 *62:9 0.00417622
73 *61:33 *305:7 0.000907364
74 *61:59 *305:7 8.9532e-05
75 *61:61 *288:12 0
76 *61:123 *62:103 0.000491388
77 *61:125 *62:103 0
78 *61:125 *62:127 0.000389551
79 *61:125 *271:18 0
80 *61:153 *62:127 0
81 *61:159 *62:135 0.00213576
82 *61:159 *62:155 0.00088449
83 *61:159 *317:17 8.22793e-06
84 *61:182 *62:155 0.000321942
85 *61:184 *287:14 0.00330826
86 *61:184 *324:10 0
87 *61:192 *331:13 4.64488e-06
88 *61:210 *311:18 0.000168997
89 *61:210 *331:13 1.21256e-05
90 *61:212 *311:14 0
91 *61:256 *351:s5 8.5796e-05
92 *61:256 *62:202 0
93 *61:256 *62:212 0
94 *61:282 *312:19 0.000469717
95 *61:320 *263:10 0
96 *61:320 *295:8 0
97 *61:353 *278:11 0
98 *61:353 *294:11 0.000353883
99 *61:355 *326:17 4.57192e-05
100 *61:389 *62:327 0
101 *61:389 *291:21 0
102 *61:415 *62:327 0
103 *61:415 *62:343 0
104 *61:415 *260:13 0.00540654
105 *61:442 *62:343 0
106 *61:444 *62:345 0.00570376
107 *61:444 *291:21 0.000304421
108 *61:444 *323:19 1.94879e-05
109 *61:456 *62:345 0.000755792
110 *61:456 *62:349 0.000751179
111 *61:456 *62:353 7.0351e-05
112 *61:456 *300:15 0.000230037
113 *339:s3 *339:s4 0.00214586
114 *340:s3 *340:s4 0.00181756
115 *348:s3 *348:s4 0
116 *348:s3 *61:359 0
117 *350:s3 *61:310 0
118 *351:s3 *351:s4 0
119 *351:s3 *61:256 0.000455776
120 *52:45 *61:59 0
121 *52:109 *61:107 0.000411411
122 *52:111 *61:109 0
123 *52:141 *61:125 0
124 *52:145 *61:153 4.6025e-06
125 *52:169 *61:153 0.00253339
126 *52:169 *61:159 0
127 *52:204 *61:192 0.000493738
128 *52:204 *61:210 0.00107962
129 *52:208 *61:210 0
130 *52:234 *61:212 0.00682839
131 *52:268 *61:256 0.00233696
132 *52:334 *61:355 0.000162153
133 *52:360 *61:355 0.00378767
134 *52:394 *61:389 0.00311394
135 *52:398 *347:s4 0
136 *52:398 *61:389 0
137 *52:437 *61:444 0.00607371
138 *52:449 *61:444 8.48078e-05
139 *52:449 *61:456 0.0007746
140 *52:475 *337:s4 8.54136e-05
141 *52:475 *61:475 0.0030899
*RES
1 io_in[3] *61:7 5.99187 
2 *61:7 *61:9 238.732 
3 *61:9 *61:11 3.41 
4 *61:11 *61:13 213.581 
5 *61:13 *344:s4 6.60089 
6 *61:13 *61:31 3.41 
7 *61:31 *61:33 84.6696 
8 *61:33 *343:s4 7.86161 
9 *61:33 *61:59 14.1875 
10 *61:59 *61:61 79.0536 
11 *61:61 *342:s4 15.1125 
12 *342:s4 *61:76 1.16667 
13 *342:s4 *61:107 26.8242 
14 *61:107 *61:109 79.8125 
15 *61:109 *341:s4 26.1741 
16 *61:109 *61:123 14.3125 
17 *61:123 *61:125 98.4821 
18 *61:125 *61:129 4.03353 
19 *61:129 *340:s4 25.0542 
20 *61:129 *61:151 3.41 
21 *61:151 *61:153 55.4107 
22 *61:153 *61:159 42.6957 
23 *61:159 *339:s4 24.2264 
24 *61:159 *61:182 4.82627 
25 *61:182 *61:184 72.5268 
26 *61:184 *61:192 19.0179 
27 *61:192 *338:s4 25.1161 
28 *61:192 *61:210 21.4946 
29 *61:210 *61:212 88.1607 
30 *61:212 *61:218 10.2541 
31 *61:218 *352:s4 10.6135 
32 *61:218 *61:238 62.6607 