*SPEF "ieee 1481-1999"
*DESIGN "user_project_wrapper"
*DATE "11:11:11 Fri 11 11, 1111"
*VENDOR "OpenRCX"
*PROGRAM "Parallel Extraction"
*VERSION "1.0"
*DESIGN_FLOW "NAME_SCOPE LOCAL" "PIN_CAP NONE"
*DIVIDER /
*DELIMITER :
*BUS_DELIMITER []
*T_UNIT 1 NS
*C_UNIT 1 PF
*R_UNIT 1 OHM
*L_UNIT 1 HENRY

*NAME_MAP
*1 analog_io[0]
*2 analog_io[10]
*3 analog_io[11]
*4 analog_io[12]
*5 analog_io[13]
*6 analog_io[14]
*7 analog_io[15]
*8 analog_io[16]
*9 analog_io[17]
*10 analog_io[18]
*11 analog_io[19]
*12 analog_io[1]
*13 analog_io[20]
*14 analog_io[21]
*15 analog_io[22]
*16 analog_io[23]
*17 analog_io[24]
*18 analog_io[25]
*19 analog_io[26]
*20 analog_io[27]
*21 analog_io[28]
*22 analog_io[2]
*23 analog_io[3]
*24 analog_io[4]
*25 analog_io[5]
*26 analog_io[6]
*27 analog_io[7]
*28 analog_io[8]
*29 analog_io[9]
*30 io_in[0]
*31 io_in[10]
*32 io_in[11]
*33 io_in[12]
*34 io_in[13]
*35 io_in[14]
*36 io_in[15]
*37 io_in[16]
*38 io_in[17]
*39 io_in[18]
*40 io_in[19]
*41 io_in[1]
*42 io_in[20]
*43 io_in[21]
*44 io_in[22]
*45 io_in[23]
*46 io_in[24]
*47 io_in[25]
*48 io_in[26]
*49 io_in[27]
*50 io_in[28]
*51 io_in[29]
*52 io_in[2]
*53 io_in[30]
*54 io_in[31]
*55 io_in[32]
*56 io_in[33]
*57 io_in[34]
*58 io_in[35]
*59 io_in[36]
*60 io_in[37]
*61 io_in[3]
*62 io_in[4]
*63 io_in[5]
*64 io_in[6]
*65 io_in[7]
*66 io_in[8]
*67 io_in[9]
*68 io_oeb[0]
*69 io_oeb[10]
*70 io_oeb[11]
*71 io_oeb[12]
*72 io_oeb[13]
*73 io_oeb[14]
*74 io_oeb[15]
*75 io_oeb[16]
*76 io_oeb[17]
*77 io_oeb[18]
*78 io_oeb[19]
*79 io_oeb[1]
*80 io_oeb[20]
*81 io_oeb[21]
*82 io_oeb[22]
*83 io_oeb[23]
*84 io_oeb[24]
*85 io_oeb[25]
*86 io_oeb[26]
*87 io_oeb[27]
*88 io_oeb[28]
*89 io_oeb[29]
*90 io_oeb[2]
*91 io_oeb[30]
*92 io_oeb[31]
*93 io_oeb[32]
*94 io_oeb[33]
*95 io_oeb[34]
*96 io_oeb[35]
*97 io_oeb[36]
*98 io_oeb[37]
*99 io_oeb[3]
*100 io_oeb[4]
*101 io_oeb[5]
*102 io_oeb[6]
*103 io_oeb[7]
*104 io_oeb[8]
*105 io_oeb[9]
*106 io_out[0]
*107 io_out[10]
*108 io_out[11]
*109 io_out[12]
*110 io_out[13]
*111 io_out[14]
*112 io_out[15]
*113 io_out[16]
*114 io_out[17]
*115 io_out[18]
*116 io_out[19]
*117 io_out[1]
*118 io_out[20]
*119 io_out[21]
*120 io_out[22]
*121 io_out[23]
*122 io_out[24]
*123 io_out[25]
*124 io_out[26]
*125 io_out[27]
*126 io_out[28]
*127 io_out[29]
*128 io_out[2]
*129 io_out[30]
*130 io_out[31]
*131 io_out[32]
*132 io_out[33]
*133 io_out[34]
*134 io_out[35]
*135 io_out[36]
*136 io_out[37]
*137 io_out[3]
*138 io_out[4]
*139 io_out[5]
*140 io_out[6]
*141 io_out[7]
*142 io_out[8]
*143 io_out[9]
*146 wb_clk_i
*147 wb_rst_i
*148 wbs_ack_o
*149 wbs_adr_i[0]
*150 wbs_adr_i[10]
*151 wbs_adr_i[11]
*152 wbs_adr_i[12]
*153 wbs_adr_i[13]
*154 wbs_adr_i[14]
*155 wbs_adr_i[15]
*156 wbs_adr_i[16]
*157 wbs_adr_i[17]
*158 wbs_adr_i[18]
*159 wbs_adr_i[19]
*160 wbs_adr_i[1]
*161 wbs_adr_i[20]
*162 wbs_adr_i[21]
*163 wbs_adr_i[22]
*164 wbs_adr_i[23]
*165 wbs_adr_i[24]
*166 wbs_adr_i[25]
*167 wbs_adr_i[26]
*168 wbs_adr_i[27]
*169 wbs_adr_i[28]
*170 wbs_adr_i[29]
*171 wbs_adr_i[2]
*172 wbs_adr_i[30]
*173 wbs_adr_i[31]
*174 wbs_adr_i[3]
*175 wbs_adr_i[4]
*176 wbs_adr_i[5]
*177 wbs_adr_i[6]
*178 wbs_adr_i[7]
*179 wbs_adr_i[8]
*180 wbs_adr_i[9]
*181 wbs_cyc_i
*182 wbs_dat_i[0]
*183 wbs_dat_i[10]
*184 wbs_dat_i[11]
*185 wbs_dat_i[12]
*186 wbs_dat_i[13]
*187 wbs_dat_i[14]
*188 wbs_dat_i[15]
*189 wbs_dat_i[16]
*190 wbs_dat_i[17]
*191 wbs_dat_i[18]
*192 wbs_dat_i[19]
*193 wbs_dat_i[1]
*194 wbs_dat_i[20]
*195 wbs_dat_i[21]
*196 wbs_dat_i[22]
*197 wbs_dat_i[23]
*198 wbs_dat_i[24]
*199 wbs_dat_i[25]
*200 wbs_dat_i[26]
*201 wbs_dat_i[27]
*202 wbs_dat_i[28]
*203 wbs_dat_i[29]
*204 wbs_dat_i[2]
*205 wbs_dat_i[30]
*206 wbs_dat_i[31]
*207 wbs_dat_i[3]
*208 wbs_dat_i[4]
*209 wbs_dat_i[5]
*210 wbs_dat_i[6]
*211 wbs_dat_i[7]
*212 wbs_dat_i[8]
*213 wbs_dat_i[9]
*214 wbs_dat_o[0]
*215 wbs_dat_o[10]
*216 wbs_dat_o[11]
*217 wbs_dat_o[12]
*218 wbs_dat_o[13]
*219 wbs_dat_o[14]
*220 wbs_dat_o[15]
*221 wbs_dat_o[16]
*222 wbs_dat_o[17]
*223 wbs_dat_o[18]
*224 wbs_dat_o[19]
*225 wbs_dat_o[1]
*226 wbs_dat_o[20]
*227 wbs_dat_o[21]
*228 wbs_dat_o[22]
*229 wbs_dat_o[23]
*230 wbs_dat_o[24]
*231 wbs_dat_o[25]
*232 wbs_dat_o[26]
*233 wbs_dat_o[27]
*234 wbs_dat_o[28]
*235 wbs_dat_o[29]
*236 wbs_dat_o[2]
*237 wbs_dat_o[30]
*238 wbs_dat_o[31]
*239 wbs_dat_o[3]
*240 wbs_dat_o[4]
*241 wbs_dat_o[5]
*242 wbs_dat_o[6]
*243 wbs_dat_o[7]
*244 wbs_dat_o[8]
*245 wbs_dat_o[9]
*246 wbs_sel_i[0]
*247 wbs_sel_i[1]
*248 wbs_sel_i[2]
*249 wbs_sel_i[3]
*250 wbs_stb_i
*251 wbs_we_i
*252 x1\[0\]
*253 x1\[10\]
*254 x1\[11\]
*255 x1\[12\]
*256 x1\[13\]
*257 x1\[14\]
*258 x1\[15\]
*259 x1\[1\]
*260 x1\[2\]
*261 x1\[3\]
*262 x1\[4\]
*263 x1\[5\]
*264 x1\[6\]
*265 x1\[7\]
*266 x1\[8\]
*267 x1\[9\]
*268 x2\[0\]
*269 x2\[10\]
*270 x2\[11\]
*271 x2\[12\]
*272 x2\[13\]
*273 x2\[14\]
*274 x2\[15\]
*275 x2\[1\]
*276 x2\[2\]
*277 x2\[3\]
*278 x2\[4\]
*279 x2\[5\]
*280 x2\[6\]
*281 x2\[7\]
*282 x2\[8\]
*283 x2\[9\]
*284 x3\[0\]
*285 x3\[10\]
*286 x3\[11\]
*287 x3\[12\]
*288 x3\[13\]
*289 x3\[14\]
*290 x3\[15\]
*291 x3\[1\]
*292 x3\[2\]
*293 x3\[3\]
*294 x3\[4\]
*295 x3\[5\]
*296 x3\[6\]
*297 x3\[7\]
*298 x3\[8\]
*299 x3\[9\]
*300 x4\[0\]
*301 x4\[10\]
*302 x4\[11\]
*303 x4\[12\]
*304 x4\[13\]
*305 x4\[14\]
*306 x4\[15\]
*307 x4\[1\]
*308 x4\[2\]
*309 x4\[3\]
*310 x4\[4\]
*311 x4\[5\]
*312 x4\[6\]
*313 x4\[7\]
*314 x4\[8\]
*315 x4\[9\]
*316 x5\[0\]
*317 x5\[10\]
*318 x5\[11\]
*319 x5\[12\]
*320 x5\[13\]
*321 x5\[14\]
*322 x5\[15\]
*323 x5\[1\]
*324 x5\[2\]
*325 x5\[3\]
*326 x5\[4\]
*327 x5\[5\]
*328 x5\[6\]
*329 x5\[7\]
*330 x5\[8\]
*331 x5\[9\]
*332 mprj1
*333 mprj2
*334 mprj3
*335 mprj4
*336 mprj5
*337 ro1
*338 ro10
*339 ro11
*340 ro12
*341 ro13
*342 ro14
*343 ro15
*344 ro16
*345 ro2
*346 ro3
*347 ro4
*348 ro5
*349 ro6
*350 ro7
*351 ro8
*352 ro9

*PORTS
analog_io[0] I
analog_io[10] I
analog_io[11] I
analog_io[12] I
analog_io[13] I
analog_io[14] I
analog_io[15] I
analog_io[16] I
analog_io[17] I
analog_io[18] I
analog_io[19] I
analog_io[1] I
analog_io[20] I
analog_io[21] I
analog_io[22] I
analog_io[23] I
analog_io[24] I
analog_io[25] I
analog_io[26] I
analog_io[27] I
analog_io[28] I
analog_io[2] I
analog_io[3] I
analog_io[4] I
analog_io[5] I
analog_io[6] I
analog_io[7] I
analog_io[8] I
analog_io[9] I
io_in[0] I
io_in[10] I
io_in[11] I
io_in[12] I
io_in[13] I
io_in[14] I
io_in[15] I
io_in[16] I
io_in[17] I
io_in[18] I
io_in[19] I
io_in[1] I
io_in[20] I
io_in[21] I
io_in[22] I
io_in[23] I
io_in[24] I
io_in[25] I
io_in[26] I
io_in[27] I
io_in[28] I
io_in[29] I
io_in[2] I
io_in[30] I
io_in[31] I
io_in[32] I
io_in[33] I
io_in[34] I
io_in[35] I
io_in[36] I
io_in[37] I
io_in[3] I
io_in[4] I
io_in[5] I
io_in[6] I
io_in[7] I
io_in[8] I
io_in[9] I
io_oeb[0] O
io_oeb[10] O
io_oeb[11] O
io_oeb[12] O
io_oeb[13] O
io_oeb[14] O
io_oeb[15] O
io_oeb[16] O
io_oeb[17] O
io_oeb[18] O
io_oeb[19] O
io_oeb[1] O
io_oeb[20] O
io_oeb[21] O
io_oeb[22] O
io_oeb[23] O
io_oeb[24] O
io_oeb[25] O
io_oeb[26] O
io_oeb[27] O
io_oeb[28] O
io_oeb[29] O
io_oeb[2] O
io_oeb[30] O
io_oeb[31] O
io_oeb[32] O
io_oeb[33] O
io_oeb[34] O
io_oeb[35] O
io_oeb[36] O
io_oeb[37] O
io_oeb[3] O
io_oeb[4] O
io_oeb[5] O
io_oeb[6] O
io_oeb[7] O
io_oeb[8] O
io_oeb[9] O
io_out[0] O
io_out[10] O
io_out[11] O
io_out[12] O
io_out[13] O
io_out[14] O
io_out[15] O
io_out[16] O
io_out[17] O
io_out[18] O
io_out[19] O
io_out[1] O
io_out[20] O
io_out[21] O
io_out[22] O
io_out[23] O
io_out[24] O
io_out[25] O
io_out[26] O
io_out[27] O
io_out[28] O
io_out[29] O
io_out[2] O
io_out[30] O
io_out[31] O
io_out[32] O
io_out[33] O
io_out[34] O
io_out[35] O
io_out[36] O
io_out[37] O
io_out[3] O
io_out[4] O
io_out[5] O
io_out[6] O
io_out[7] O
io_out[8] O
io_out[9] O
wb_clk_i I
wb_rst_i I
wbs_ack_o O
wbs_adr_i[0] I
wbs_adr_i[10] I
wbs_adr_i[11] I
wbs_adr_i[12] I
wbs_adr_i[13] I
wbs_adr_i[14] I
wbs_adr_i[15] I
wbs_adr_i[16] I
wbs_adr_i[17] I
wbs_adr_i[18] I
wbs_adr_i[19] I
wbs_adr_i[1] I
wbs_adr_i[20] I
wbs_adr_i[21] I
wbs_adr_i[22] I
wbs_adr_i[23] I
wbs_adr_i[24] I
wbs_adr_i[25] I
wbs_adr_i[26] I
wbs_adr_i[27] I
wbs_adr_i[28] I
wbs_adr_i[29] I
wbs_adr_i[2] I
wbs_adr_i[30] I
wbs_adr_i[31] I
wbs_adr_i[3] I
wbs_adr_i[4] I
wbs_adr_i[5] I
wbs_adr_i[6] I
wbs_adr_i[7] I
wbs_adr_i[8] I
wbs_adr_i[9] I
wbs_cyc_i I
wbs_dat_i[0] I
wbs_dat_i[10] I
wbs_dat_i[11] I
wbs_dat_i[12] I
wbs_dat_i[13] I
wbs_dat_i[14] I
wbs_dat_i[15] I
wbs_dat_i[16] I
wbs_dat_i[17] I
wbs_dat_i[18] I
wbs_dat_i[19] I
wbs_dat_i[1] I
wbs_dat_i[20] I
wbs_dat_i[21] I
wbs_dat_i[22] I
wbs_dat_i[23] I
wbs_dat_i[24] I
wbs_dat_i[25] I
wbs_dat_i[26] I
wbs_dat_i[27] I
wbs_dat_i[28] I
wbs_dat_i[29] I
wbs_dat_i[2] I
wbs_dat_i[30] I
wbs_dat_i[31] I
wbs_dat_i[3] I
wbs_dat_i[4] I
wbs_dat_i[5] I
wbs_dat_i[6] I
wbs_dat_i[7] I
wbs_dat_i[8] I
wbs_dat_i[9] I
wbs_dat_o[0] O
wbs_dat_o[10] O
wbs_dat_o[11] O
wbs_dat_o[12] O
wbs_dat_o[13] O
wbs_dat_o[14] O
wbs_dat_o[15] O
wbs_dat_o[16] O
wbs_dat_o[17] O
wbs_dat_o[18] O
wbs_dat_o[19] O
wbs_dat_o[1] O
wbs_dat_o[20] O
wbs_dat_o[21] O
wbs_dat_o[22] O
wbs_dat_o[23] O
wbs_dat_o[24] O
wbs_dat_o[25] O
wbs_dat_o[26] O
wbs_dat_o[27] O
wbs_dat_o[28] O
wbs_dat_o[29] O
wbs_dat_o[2] O
wbs_dat_o[30] O
wbs_dat_o[31] O
wbs_dat_o[3] O
wbs_dat_o[4] O
wbs_dat_o[5] O
wbs_dat_o[6] O
wbs_dat_o[7] O
wbs_dat_o[8] O
wbs_dat_o[9] O
wbs_sel_i[0] I
wbs_sel_i[1] I
wbs_sel_i[2] I
wbs_sel_i[3] I
wbs_stb_i I
wbs_we_i I

*D_NET *30 0.397688
*CONN
*P io_in[0] I
*I *347:s1 I *D sky130_osu_ring_oscillator_mpr2ct_8_b0r1
*I *337:s1 I *D sky130_osu_ring_oscillator_mpr2aa_8_b0r1
*I *345:s1 I *D sky130_osu_ring_oscillator_mpr2at_8_b0r1
*I *346:s1 I *D sky130_osu_ring_oscillator_mpr2ca_8_b0r1
*I *348:s1 I *D sky130_osu_ring_oscillator_mpr2ea_8_b0r1
*I *349:s1 I *D sky130_osu_ring_oscillator_mpr2et_8_b0r1
*I *350:s1 I *D sky130_osu_ring_oscillator_mpr2xa_8_b0r1
*I *351:s1 I *D sky130_osu_ring_oscillator_mpr2ya_8_b0r1
*I *352:s1 I *D sky130_osu_ring_oscillator_mpr2aa_8_b0r2
*I *338:s1 I *D sky130_osu_ring_oscillator_mpr2at_8_b0r2
*I *339:s1 I *D sky130_osu_ring_oscillator_mpr2ca_8_b0r2
*I *340:s1 I *D sky130_osu_ring_oscillator_mpr2ct_8_b0r2
*I *341:s1 I *D sky130_osu_ring_oscillator_mpr2ea_8_b0r2
*I *342:s1 I *D sky130_osu_ring_oscillator_mpr2et_8_b0r2
*I *343:s1 I *D sky130_osu_ring_oscillator_mpr2xa_8_b0r2
*I *344:s1 I *D sky130_osu_ring_oscillator_mpr2ya_8_b0r2
*CAP
1 io_in[0] 0.0453702
2 *347:s1 0.000149526
3 *337:s1 0.000497456
4 *345:s1 0.00169165
5 *346:s1 0.00449336
6 *348:s1 0.0004251
7 *349:s1 0.000550095
8 *350:s1 0.000986049
9 *351:s1 0.000335964
10 *352:s1 0.000458916
11 *338:s1 0.00175946
12 *339:s1 0.000251986
13 *340:s1 0.000170101
14 *341:s1 0.00041497
15 *342:s1 0.000539534
16 *343:s1 0.000273898
17 *344:s1 0.0011951
18 *30:369 0.00259685
19 *30:367 0.00358472
20 *30:339 0.00424452
21 *30:337 0.0044281
22 *30:310 0.00500379
23 *30:302 0.00364075
24 *30:300 0.00440088
25 *30:283 0.00322993
26 *30:279 0.00359802
27 *30:264 0.00558949
28 *30:262 0.00312974
29 *30:233 0.0056988
30 *30:231 0.00476464
31 *30:212 0.0040365
32 *30:197 0.00638491
33 *30:195 0.00347516
34 *30:191 0.000779612
35 *30:175 0.00411822
36 *30:158 0.00508567
37 *30:146 0.00524368
38 *30:144 0.00398496
39 *30:124 0.00234357
40 *30:122 0.00308362
41 *30:97 0.00235981
42 *30:93 0.00279868
43 *30:74 0.00559978
44 *30:72 0.0035854
45 *30:55 0.00213227
46 *30:49 0.00209592
47 *30:13 0.0231977
48 *30:11 0.020535
49 *30:9 0.0360108
50 *30:7 0.0360108
51 *30:5 0.0453702
52 *337:s1 *337:start 3.53901e-05
53 *338:s1 *267:11 0
54 *341:s1 *341:start 1.02394e-05
55 *342:s1 *342:start 5.97809e-05
56 *343:s1 *52:51 7.08947e-05
57 *346:s1 *260:7 0
58 *348:s1 *348:start 9.60582e-07
59 *349:s1 *349:start 0.000119246
60 *350:s1 *350:s2 0.000181288
61 *350:s1 *350:s3 8.29243e-05
62 *350:s1 *350:start 5.08922e-05
63 *350:s1 *41:251 6.1908e-05
64 *350:s1 *41:257 0
65 *350:s1 *52:338 0.00173275
66 *351:s1 *351:start 1.23307e-05
67 *352:s1 *352:start 4.77769e-05
68 *30:13 *344:s4 0.000374415
69 *30:13 *41:17 0.00255514
70 *30:13 *61:35 0.000545781
71 *30:49 *41:23 0.00144392
72 *30:49 *41:25 0.000963398
73 *30:55 *343:start 7.85396e-05
74 *30:55 *41:25 0.00212821
75 *30:55 *52:45 0.00168491
76 *30:72 *343:s2 0
77 *30:72 *343:start 0.000888837
78 *30:72 *41:59 0.00214623
79 *30:72 *63:17 6.32345e-05
80 *30:74 *41:61 0.0060831
81 *30:93 *41:61 0.000670923
82 *30:93 *41:88 0.00634091
83 *30:97 *41:88 1.16208e-05
84 *30:122 *41:88 0.00021561
85 *30:122 *41:116 0.0020861
86 *30:124 *41:116 0.00119105
87 *30:144 *41:116 8.40904e-05
88 *30:158 *41:160 0.00346873
89 *30:195 *338:start 3.10231e-05
90 *30:197 *41:188 0.000744029
91 *30:197 *41:215 0.00613841
92 *30:212 *41:215 0.00058311
93 *30:212 *41:243 0.00628061
94 *30:231 *41:243 0.000615294
95 *30:231 *41:247 0.000148816
96 *30:262 *52:338 0.000159582
97 *30:264 *41:259 0.0063153
98 *30:279 *41:259 0.000775092
99 *30:279 *41:288 0.000849877
100 *30:279 *41:290 0
101 *30:283 *41:290 0.00216248
102 *30:300 *41:290 0.000217586
103 *30:339 *259:12 0
104 *30:367 *345:s2 1.7062e-05
105 *30:369 *41:396 0.00545255
*RES
1 io_in[0] *30:5 121.825 
2 *30:5 *30:7 0.5 
3 *30:7 *30:9 655.455 
4 *30:9 *30:11 0.5 
5 *30:11 *30:13 57.722 
6 *30:13 *344:s1 13.1759 
7 *30:13 *30:49 43.4025 
8 *30:49 *30:55 31.86 
9 *30:55 *343:s1 8.86125 
10 *30:55 *30:72 15.0467 
11 *30:72 *30:74 68.0625 
12 *30:74 *342:s1 13.4362 
13 *30:74 *30:93 78.5175 
14 *30:93 *30:97 1.2825 
15 *30:97 *341:s1 11.07 
16 *30:97 *30:122 47.9325 
17 *30:122 *30:124 31.0575 
18 *30:124 *340:s1 5.01125 
19 *30:124 *30:144 5.43003 
20 *30:144 *30:146 55.185 
21 *30:146 *30:158 30.8809 
22 *30:158 *339:s1 1.1802 
23 *30:158 *30:175 48.215 
24 *30:175 *338:s1 27.2437 
25 *338:s1 *30:191 6.84875 
26 *30:191 *30:195 10.73 
27 *30:195 *30:197 79.5375 
28 *30:197 *352:s1 11.5275 
29 *30:197 *30:212 79.2825 
30 *30:212 *351:s1 9.43875 
31 *30:212 *30:231 12.0878 
32 *30:231 *30:233 73.035 
33 *30:233 *350:s1 17.3743 
34 *30:233 *30:262 6.89833 
35 *30:262 *30:264 70.6125 
36 *30:264 *349:s1 13.56 
37 *30:264 *30:279 54.2625 
38 *30:279 *30:283 26.1375 
39 *30:283 *348:s1 11.0063 
40 *30:283 *30:300 32.5875 
41 *30:300 *30:302 45.465 
42 *30:302 *30:310 4.98927 
43 *30:310 *346:s1 74.5125 
44 *346:s1 *30:337 2.92748 
45 *30:337 *30:339 73.545 
46 *30:339 *345:s1 3.8625 
47 *345:s1 *30:367 13.7444 
48 *30:367 *30:369 60.9225 
49 *30:369 *337:s1 12.4275 
50 *30:302 *347:s1 4.72625 
*END

*D_NET *41 0.44145
*CONN
*P io_in[1] I
*I *344:s2 I *D sky130_osu_ring_oscillator_mpr2ya_8_b0r2
*I *351:s2 I *D sky130_osu_ring_oscillator_mpr2ya_8_b0r1
*I *350:s2 I *D sky130_osu_ring_oscillator_mpr2xa_8_b0r1
*I *346:s2 I *D sky130_osu_ring_oscillator_mpr2ca_8_b0r1
*I *337:s2 I *D sky130_osu_ring_oscillator_mpr2aa_8_b0r1
*I *345:s2 I *D sky130_osu_ring_oscillator_mpr2at_8_b0r1
*I *347:s2 I *D sky130_osu_ring_oscillator_mpr2ct_8_b0r1
*I *348:s2 I *D sky130_osu_ring_oscillator_mpr2ea_8_b0r1
*I *349:s2 I *D sky130_osu_ring_oscillator_mpr2et_8_b0r1
*I *352:s2 I *D sky130_osu_ring_oscillator_mpr2aa_8_b0r2
*I *338:s2 I *D sky130_osu_ring_oscillator_mpr2at_8_b0r2
*I *339:s2 I *D sky130_osu_ring_oscillator_mpr2ca_8_b0r2
*I *340:s2 I *D sky130_osu_ring_oscillator_mpr2ct_8_b0r2
*I *341:s2 I *D sky130_osu_ring_oscillator_mpr2ea_8_b0r2
*I *342:s2 I *D sky130_osu_ring_oscillator_mpr2et_8_b0r2
*I *343:s2 I *D sky130_osu_ring_oscillator_mpr2xa_8_b0r2
*CAP
1 io_in[1] 0.0643052
2 *344:s2 0.000526015
3 *351:s2 0.000677727
4 *350:s2 0.00160307
5 *346:s2 0.000983828
6 *337:s2 0.00184966
7 *345:s2 0.0019491
8 *347:s2 0.00382089
9 *348:s2 0.00028082
10 *349:s2 0.00162445
11 *352:s2 0.00186012
12 *338:s2 0.00183252
13 *339:s2 0.000430576
14 *340:s2 0.00171635
15 *341:s2 0.00198882
16 *342:s2 0.0021235
17 *343:s2 0.00200076
18 *41:477 0
19 *41:396 0.00443092
20 *41:376 0.00517038
21 *41:372 0.00481938
22 *41:370 0.00912867
23 *41:368 0.00608529
24 *41:320 0.00426271
25 *41:296 0.00427541
26 *41:290 0.00448332
27 *41:288 0.00343834
28 *41:259 0.00349797
29 *41:257 0.00288524
30 *41:251 0.00570548
31 *41:249 0.00270269
32 *41:247 0.0017799
33 *41:243 0.00407424
34 *41:215 0.00772145
35 *41:188 0.00713472
36 *41:186 0.00555699
37 *41:160 0.0053782
38 *41:150 0.00448658
39 *41:120 0.00477264
40 *41:116 0.00334461
41 *41:88 0.00764603
42 *41:61 0.00744212
43 *41:59 0.0035365
44 *41:25 0.0046571
45 *41:23 0.00305129
46 *41:17 0.00321674
47 *41:9 0.0233163
48 *41:7 0.0219243
49 *41:5 0.0643052
50 *347:s2 *277:12 0
51 *349:s2 *52:344 0.00282247
52 *350:s2 *350:start 0.000187695
53 *351:s2 *52:311 8.11909e-05
54 *41:9 *52:9 0.0303128
55 *41:17 *344:s4 0.00178862
56 *41:25 *343:start 0.000435854
57 *41:25 *52:45 0
58 *41:59 *343:start 0.000127009
59 *41:59 *63:17 4.82172e-06
60 *41:59 *63:30 0.000926561
61 *41:247 *52:311 2.56429e-05
62 *41:251 *350:start 0.000139815
63 *41:251 *52:313 0.00353347
64 *41:251 *52:338 6.27007e-05
65 *41:257 *52:338 0
66 *41:259 *52:340 0.00726517
67 *350:s1 *350:s2 0.000181288
68 *350:s1 *41:251 6.1908e-05
69 *350:s1 *41:257 0
70 *30:13 *41:17 0.00255514
71 *30:49 *41:23 0.00144392
72 *30:49 *41:25 0.000963398
73 *30:55 *41:25 0.00212821
74 *30:72 *343:s2 0
75 *30:72 *41:59 0.00214623
76 *30:74 *41:61 0.0060831
77 *30:93 *41:61 0.000670923
78 *30:93 *41:88 0.00634091
79 *30:97 *41:88 1.16208e-05
80 *30:122 *41:88 0.00021561
81 *30:122 *41:116 0.0020861
82 *30:124 *41:116 0.00119105
83 *30:144 *41:116 8.40904e-05
84 *30:158 *41:160 0.00346873
85 *30:197 *41:188 0.000744029
86 *30:197 *41:215 0.00613841
87 *30:212 *41:215 0.00058311
88 *30:212 *41:243 0.00628061
89 *30:231 *41:243 0.000615294
90 *30:231 *41:247 0.000148816
91 *30:264 *41:259 0.0063153
92 *30:279 *41:259 0.000775092
93 *30:279 *41:288 0.000849877
94 *30:279 *41:290 0
95 *30:283 *41:290 0.00216248
96 *30:300 *41:290 0.000217586
97 *30:367 *345:s2 1.7062e-05
98 *30:369 *41:396 0.00545255
*RES
1 io_in[1] *41:5 172.517 
2 *41:5 *41:7 0.5 
3 *41:7 *41:9 505.515 
4 *41:9 *41:17 8.80887 
5 *41:17 *41:23 32.1 
6 *41:23 *41:25 49.065 
7 *41:25 *343:s2 14.3105 
8 *41:25 *41:59 6.89767 
9 *41:59 *41:61 76.095 
10 *41:61 *342:s2 15.8245 
11 *41:61 *41:88 77.115 
12 *41:88 *341:s2 13.4561 
13 *41:88 *41:116 77.415 
14 *41:116 *41:120 6.555 
15 *41:120 *340:s2 18.0258 
16 *41:120 *41:150 46.995 
17 *41:150 *41:160 30.7633 
18 *41:160 *339:s2 4.83478 
19 *41:160 *41:186 41.5633 
20 *41:186 *41:188 44.985 
21 *41:188 *338:s2 24.6664 
22 *41:188 *41:215 77.625 
23 *41:215 *352:s2 12.7918 
24 *41:215 *41:243 79.665 
25 *41:243 *41:247 3.62613 
26 *41:247 *41:249 0.5 
27 *41:249 *41:251 72.525 
28 *41:251 *41:257 4.30093 
29 *41:257 *41:259 86.805 
30 *41:259 *349:s2 17.2627 
31 *41:259 *41:288 10.635 
32 *41:288 *41:290 63.645 
33 *41:290 *41:296 4.76707 
34 *41:296 *348:s2 4.58527 
35 *41:296 *41:320 46.59 
36 *41:320 *347:s2 30.6299 
37 *347:s2 *41:368 14.825 
38 *41:368 *41:370 69.465 
39 *41:370 *41:372 73.365 
40 *41:372 *41:376 11.625 
41 *41:376 *345:s2 8.66112 
42 *41:376 *41:396 69.465 
43 *41:396 *337:s2 7.74123 
44 *41:370 *346:s2 19.5688 
45 *41:251 *350:s2 8.3747 
46 *41:247 *351:s2 9.69867 
47 *351:s2 *41:477 0.163333 
48 *41:17 *344:s2 8.9364 
*END

*D_NET *52 0.448013
*CONN
*P io_in[2] I
*I *337:s3 I *D sky130_osu_ring_oscillator_mpr2aa_8_b0r1
*I *345:s3 I *D sky130_osu_ring_oscillator_mpr2at_8_b0r1
*I *346:s3 I *D sky130_osu_ring_oscillator_mpr2ca_8_b0r1
*I *347:s3 I *D sky130_osu_ring_oscillator_mpr2ct_8_b0r1
*I *348:s3 I *D sky130_osu_ring_oscillator_mpr2ea_8_b0r1
*I *349:s3 I *D sky130_osu_ring_oscillator_mpr2et_8_b0r1
*I *350:s3 I *D sky130_osu_ring_oscillator_mpr2xa_8_b0r1
*I *351:s3 I *D sky130_osu_ring_oscillator_mpr2ya_8_b0r1
*I *352:s3 I *D sky130_osu_ring_oscillator_mpr2aa_8_b0r2
*I *338:s3 I *D sky130_osu_ring_oscillator_mpr2at_8_b0r2
*I *339:s3 I *D sky130_osu_ring_oscillator_mpr2ca_8_b0r2
*I *340:s3 I *D sky130_osu_ring_oscillator_mpr2ct_8_b0r2
*I *341:s3 I *D sky130_osu_ring_oscillator_mpr2ea_8_b0r2
*I *342:s3 I *D sky130_osu_ring_oscillator_mpr2et_8_b0r2
*I *343:s3 I *D sky130_osu_ring_oscillator_mpr2xa_8_b0r2
*I *344:s3 I *D sky130_osu_ring_oscillator_mpr2ya_8_b0r2
*CAP
1 io_in[2] 0.0688195
2 *337:s3 0.00246384
3 *345:s3 0.00183012
4 *346:s3 0.002704
5 *347:s3 0.00185274
6 *348:s3 0.00228049
7 *349:s3 0.000680539
8 *350:s3 0.00173262
9 *351:s3 0.000486917
10 *352:s3 0.00232364
11 *338:s3 0.00202144
12 *339:s3 0.00238068
13 *340:s3 0.002086
14 *341:s3 0.00236402
15 *342:s3 0.0022152
16 *343:s3 0
17 *344:s3 0.000422032
18 *52:482 0.00527796
19 *52:480 0.00281412
20 *52:456 0.00216414
21 *52:452 0.001721
22 *52:429 0.0048026
23 *52:425 0.0034502
24 *52:402 0.00587071
25 *52:400 0.00354637
26 *52:372 0.00866004
27 *52:370 0.00580798
28 *52:344 0.00438418
29 *52:340 0.00484077
30 *52:338 0.00405323
31 *52:313 0.00546346
32 *52:311 0.00360899
33 *52:283 0.00336088
34 *52:277 0.00575907
35 *52:249 0.006578
36 *52:243 0.00317711
37 *52:241 0.00290669
38 *52:217 0.00392466
39 *52:211 0.00398923
40 *52:174 0.00806064
41 *52:169 0
42 *52:150 0.00594948
43 *52:142 0.0048078
44 *52:116 0.00787699
45 *52:112 0.00412676
46 *52:84 0.0056974
47 *52:78 0.00463879
48 *52:76 0.00683382
49 *52:51 0.00414072
50 *52:45 0.00316324
51 *52:41 0.00455565
52 *52:15 0.00508624
53 *52:9 0.0146657
54 *52:7 0.0130095
55 *52:5 0.0688195
56 *338:s3 *314:11 0.00065741
57 *340:s3 *61:169 0.000785052
58 *341:s3 *61:101 0.00074052
59 *342:s3 *342:s4 0.00096154
60 *342:s3 *61:65 0.000541935
61 *342:s3 *62:67 0
62 *345:s3 *345:s4 0.000366604
63 *346:s3 *61:492 0.000313799
64 *346:s3 *291:16 0
65 *347:s3 *276:9 0.00111411
66 *348:s3 *62:267 0.000379975
67 *348:s3 *309:17 0.000721733
68 *352:s3 *62:170 0
69 *52:15 *344:s4 8.23553e-06
70 *52:15 *344:s5 5.52086e-06
71 *52:76 *61:59 0
72 *52:76 *63:13 0.00118301
73 *52:78 *61:61 0
74 *52:78 *62:57 0
75 *52:78 *272:22 0
76 *52:84 *61:65 0
77 *52:84 *62:61 0
78 *52:112 *62:67 0
79 *52:116 *62:71 0
80 *52:116 *62:85 0
81 *52:142 *61:171 5.10462e-05
82 *52:142 *62:85 0
83 *52:142 *62:99 0
84 *52:142 *329:9 0
85 *52:142 *330:11 0
86 *52:150 *61:169 0.000419332
87 *52:150 *62:99 0
88 *52:174 *62:99 0
89 *52:174 *62:103 0.00196525
90 *52:174 *62:123 0.000805568
91 *52:211 *335:data_in[9] 0.000374553
92 *52:211 *329:9 0.00278461
93 *52:217 *61:225 0
94 *52:217 *61:251 0
95 *52:217 *314:11 0.00032433
96 *52:217 *329:9 0.00151875
97 *52:217 *331:15 1.40237e-05
98 *52:243 *61:253 0.00628608
99 *52:243 *62:170 0
100 *52:277 *62:170 0
101 *52:277 *296:17 0.000652354
102 *52:283 *61:307 0
103 *52:338 *350:start 1.4548e-05
104 *52:370 *61:378 0.000582455
105 *52:370 *310:13 0
106 *52:372 *62:267 0.00096326
107 *52:400 *62:269 0
108 *52:402 *61:439 0.00282773
109 *52:402 *62:269 0
110 *52:402 *62:287 0.000233061
111 *52:402 *325:15 5.94427e-06
112 *52:425 *61:439 0.000416505
113 *52:425 *62:287 0.00267943
114 *52:425 *62:303 9.57051e-05
115 *52:429 *61:494 9.72113e-05
116 *52:429 *62:303 0
117 *52:452 *61:494 0.0055004
118 *52:452 *61:504 0.000537229
119 *52:452 *300:17 0.00553952
120 *52:452 *323:16 1.79483e-05
121 *52:456 *345:s4 2.35256e-05
122 *52:456 *61:504 0.000226856
123 *52:482 *337:s4 0.000102192
124 *52:482 *61:523 0.00308177
125 *343:s1 *52:51 7.08947e-05
126 *349:s2 *52:344 0.00282247
127 *350:s1 *350:s3 8.29243e-05
128 *350:s1 *52:338 0.00173275
129 *351:s2 *52:311 8.11909e-05
130 *30:55 *52:45 0.00168491
131 *30:262 *52:338 0.000159582
132 *41:9 *52:9 0.0303128
133 *41:25 *52:45 0
134 *41:247 *52:311 2.56429e-05
135 *41:251 *52:313 0.00353347
136 *41:251 *52:338 6.27007e-05
137 *41:257 *52:338 0
138 *41:259 *52:340 0.00726517
*RES
1 io_in[2] *52:5 172.459 
2 *52:5 *52:7 0.5 
3 *52:7 *52:9 349.965 
4 *52:9 *52:15 5.408 
5 *52:15 *344:s3 4.33387 
6 *52:15 *52:41 39.8585 
7 *52:41 *52:45 39.7175 
8 *52:45 *52:51 30.2862 
9 *52:51 *343:s3 2 
10 *52:51 *52:76 18.5161 
11 *52:76 *52:78 77.625 
12 *52:78 *52:84 1.912 
13 *52:84 *342:s3 18.4681 
14 *52:84 *52:112 57.195 
15 *52:112 *52:116 17.415 
16 *52:116 *341:s3 14.2752 
17 *52:116 *52:142 82.215 
18 *52:142 *52:150 3.31393 
19 *52:150 *340:s3 20.3573 
20 *340:s3 *52:169 0.163333 
21 *52:150 *52:174 76.095 
22 *52:174 *339:s3 14.9775 
23 *52:174 *52:211 46.0616 
24 *52:211 *52:217 41.9801 
25 *52:217 *338:s3 16.2883 
26 *52:217 *52:241 0.5 
27 *52:241 *52:243 78.645 
28 *52:243 *52:249 1.62067 
29 *52:249 *352:s3 17.5502 
30 *52:249 *52:277 73.035 
31 *52:277 *52:283 5.69933 
32 *52:283 *351:s3 7.81703 
33 *52:283 *52:311 8.06367 
34 *52:311 *52:313 68.0625 
35 *52:313 *350:s3 37.2825 
36 *52:313 *52:338 10.048 
37 *52:338 *52:340 81.195 
38 *52:340 *52:344 7.29693 
39 *52:344 *349:s3 11.707 
40 *52:344 *52:370 5.37413 
41 *52:370 *52:372 78.135 
42 *52:372 *348:s3 15.2084 
43 *52:372 *52:400 41.1 
44 *52:400 *52:402 36.57 
45 *52:402 *347:s3 12.2905 
46 *52:402 *52:425 72.315 
47 *52:425 *52:429 13.2 
48 *52:429 *346:s3 17.3872 
49 *52:429 *52:452 74.565 
50 *52:452 *52:456 1.70333 
51 *52:456 *345:s3 11.2782 
52 *52:456 *52:480 0.5 
53 *52:480 *52:482 70.485 
54 *52:482 *337:s3 13.6083 
*END

*D_NET *61 0.355019
*CONN
*P io_in[3] I
*I *337:s4 I *D sky130_osu_ring_oscillator_mpr2aa_8_b0r1
*I *345:s4 I *D sky130_osu_ring_oscillator_mpr2at_8_b0r1
*I *346:s4 I *D sky130_osu_ring_oscillator_mpr2ca_8_b0r1
*I *347:s4 I *D sky130_osu_ring_oscillator_mpr2ct_8_b0r1
*I *348:s4 I *D sky130_osu_ring_oscillator_mpr2ea_8_b0r1
*I *349:s4 I *D sky130_osu_ring_oscillator_mpr2et_8_b0r1
*I *350:s4 I *D sky130_osu_ring_oscillator_mpr2xa_8_b0r1
*I *351:s4 I *D sky130_osu_ring_oscillator_mpr2ya_8_b0r1
*I *352:s4 I *D sky130_osu_ring_oscillator_mpr2aa_8_b0r2
*I *338:s4 I *D sky130_osu_ring_oscillator_mpr2at_8_b0r2
*I *339:s4 I *D sky130_osu_ring_oscillator_mpr2ca_8_b0r2
*I *340:s4 I *D sky130_osu_ring_oscillator_mpr2ct_8_b0r2
*I *341:s4 I *D sky130_osu_ring_oscillator_mpr2ea_8_b0r2
*I *342:s4 I *D sky130_osu_ring_oscillator_mpr2et_8_b0r2
*I *343:s4 I *D sky130_osu_ring_oscillator_mpr2xa_8_b0r2
*I *344:s4 I *D sky130_osu_ring_oscillator_mpr2ya_8_b0r2
*CAP
1 io_in[3] 0.0638483
2 *337:s4 0.00114834
3 *345:s4 0.000860006
4 *346:s4 0.00117945
5 *347:s4 0.00155857
6 *348:s4 0.000270599
7 *349:s4 0.00106193
8 *350:s4 0.00178011
9 *351:s4 0.000115609
10 *352:s4 0.000322927
11 *338:s4 0.000927143
12 *339:s4 0.000112044
13 *340:s4 5.61964e-05
14 *341:s4 0.000735149
15 *342:s4 0.00101948
16 *343:s4 0.000809163
17 *344:s4 0.00128952
18 *61:523 0.00349705
19 *61:521 0.0023487
20 *61:504 0.00156607
21 *61:494 0.00288044
22 *61:492 0.00258747
23 *61:465 0.00563947
24 *61:463 0.00404692
25 *61:439 0.00418888
26 *61:427 0.00548311
27 *61:425 0.0032931
28 *61:398 0.00250706
29 *61:382 0.00433012
30 *61:378 0.00337973
31 *61:350 0.00470776
32 *61:348 0.0035469
33 *61:309 0.00478316
34 *61:307 0.003976
35 *61:283 0.000627942
36 *61:279 0.00397508
37 *61:259 0.00513466
38 *61:253 0.00408764
39 *61:251 0.00367834
40 *61:225 0.00276614
41 *61:223 0.00446386
42 *61:215 0.00447415
43 *61:187 0.0023204
44 *61:171 0.00470489
45 *61:169 0.00542714
46 *61:141 0.00332064
47 *61:125 0.00458998
48 *61:101 0.00441948
49 *61:95 0.00478832
50 *61:93 0.00422443
51 *61:65 0.00127381
52 *61:61 0.00468536
53 *61:59 0.00547003
54 *61:39 0.00184816
55 *61:37 0.00230754
56 *61:35 0.00253341
57 *61:11 0.00151539
58 *61:9 0.0113597
59 *61:7 0.0113597
60 *61:5 0.0638483
61 *337:s4 *300:15 0
62 *337:s4 *316:15 0
63 *343:s4 *343:s5 0.00041727
64 *344:s4 *344:s5 0.00135556
65 *345:s4 *62:325 0.00072189
66 *346:s4 *291:16 0.000566128
67 *347:s4 *276:9 0.000391884
68 *350:s4 *264:10 0.000408245
69 *350:s4 *280:10 0.000607162
70 *350:s4 *312:16 0
71 *61:35 *344:s5 0.0011949
72 *61:37 *62:35 0.00586653
73 *61:37 *62:55 1.53143e-05
74 *61:59 *343:s5 3.57349e-05
75 *61:59 *62:55 0.000584913
76 *61:61 *342:s5 0
77 *61:65 *62:61 0.000419917
78 *61:65 *62:65 0.000382746
79 *61:95 *62:67 0
80 *61:95 *62:71 0
81 *61:95 *62:85 0
82 *61:141 *286:11 0
83 *61:171 *62:99 0
84 *61:171 *62:103 0
85 *61:171 *329:9 0
86 *61:187 *317:19 0
87 *61:223 *315:5 0
88 *61:251 *62:150 0
89 *61:279 *313:16 0.000933827
90 *61:283 *313:16 6.36315e-05
91 *61:348 *62:227 5.55053e-05
92 *61:350 *62:229 0.00227425
93 *61:350 *62:233 0.00129804
94 *61:378 *62:233 0.000258727
95 *61:378 *62:247 0.000849482
96 *61:378 *310:13 0
97 *61:398 *348:s5 0.000258529
98 *61:398 *326:13 1.84465e-05
99 *61:425 *310:7 3.30778e-05
100 *61:427 *309:11 0
101 *61:439 *276:9 7.85957e-05
102 *61:465 *62:287 0
103 *61:465 *62:303 0
104 *61:492 *62:303 0
105 *61:492 *291:16 0.000126565
106 *61:494 *345:s5 0
107 *61:494 *62:303 0
108 *61:504 *345:s5 8.32311e-05
109 *61:504 *62:325 5.99126e-05
110 *61:504 *323:16 1.87784e-05
111 *340:s3 *61:169 0.000785052
112 *341:s3 *61:101 0.00074052
113 *342:s3 *342:s4 0.00096154
114 *342:s3 *61:65 0.000541935
115 *345:s3 *345:s4 0.000366604
116 *346:s3 *61:492 0.000313799
117 *30:13 *344:s4 0.000374415
118 *30:13 *61:35 0.000545781
119 *41:17 *344:s4 0.00178862
120 *52:15 *344:s4 8.23553e-06
121 *52:76 *61:59 0
122 *52:78 *61:61 0
123 *52:84 *61:65 0
124 *52:142 *61:171 5.10462e-05
125 *52:150 *61:169 0.000419332
126 *52:217 *61:225 0
127 *52:217 *61:251 0
128 *52:243 *61:253 0.00628608
129 *52:283 *61:307 0
130 *52:370 *61:378 0.000582455
131 *52:402 *61:439 0.00282773
132 *52:425 *61:439 0.000416505
133 *52:429 *61:494 9.72113e-05
134 *52:452 *61:494 0.0055004
135 *52:452 *61:504 0.000537229
136 *52:456 *345:s4 2.35256e-05
137 *52:456 *61:504 0.000226856
138 *52:482 *337:s4 0.000102192
139 *52:482 *61:523 0.00308177
*RES
1 io_in[3] *61:5 171.236 
2 *61:5 *61:7 0.5 
3 *61:7 *61:9 206.145 
4 *61:9 *61:11 0.5 
5 *61:11 *344:s4 14.0463 
6 *61:11 *61:35 2.34427 
7 *61:35 *61:37 66.0225 
8 *61:37 *61:39 2 
9 *61:39 *343:s4 15.705 
10 *61:39 *61:59 16.6574 
11 *61:59 *61:61 79.665 
12 *61:61 *61:65 1.9364 
13 *61:65 *342:s4 12.2004 
14 *61:65 *61:93 0.5 
15 *61:93 *61:95 76.095 
16 *61:95 *61:101 2.9608 
17 *61:101 *341:s4 8.15998 
18 *61:101 *61:125 56.715 
19 *61:125 *61:141 21.5739 
20 *61:141 *340:s4 1.15125 
21 *61:141 *61:169 18.279 
22 *61:169 *61:171 65.5125 
23 *61:171 *61:187 20.9375 
24 *61:187 *339:s4 2.0175 
25 *61:187 *61:215 21.277 
26 *61:215 *61:223 45.0883 
27 *61:223 *61:225 19.8675 
28 *61:225 *338:s4 18.2975 
29 *61:225 *61:251 7.04863 
30 *61:251 *61:253 79.665 
31 *61:253 *61:259 3.77653 