*SPEF "ieee 1481-1999"
*DESIGN "user_project_wrapper"
*DATE "11:11:11 Fri 11 11, 1111"
*VENDOR "OpenRCX"
*PROGRAM "Parallel Extraction"
*VERSION "1.0"
*DESIGN_FLOW "NAME_SCOPE LOCAL" "PIN_CAP NONE"
*DIVIDER /
*DELIMITER :
*BUS_DELIMITER []
*T_UNIT 1 NS
*C_UNIT 1 PF
*R_UNIT 1 OHM
*L_UNIT 1 HENRY

*NAME_MAP
*1 analog_io[0]
*2 analog_io[10]
*3 analog_io[11]
*4 analog_io[12]
*5 analog_io[13]
*6 analog_io[14]
*7 analog_io[15]
*8 analog_io[16]
*9 analog_io[17]
*10 analog_io[18]
*11 analog_io[19]
*12 analog_io[1]
*13 analog_io[20]
*14 analog_io[21]
*15 analog_io[22]
*16 analog_io[23]
*17 analog_io[24]
*18 analog_io[25]
*19 analog_io[26]
*20 analog_io[27]
*21 analog_io[28]
*22 analog_io[2]
*23 analog_io[3]
*24 analog_io[4]
*25 analog_io[5]
*26 analog_io[6]
*27 analog_io[7]
*28 analog_io[8]
*29 analog_io[9]
*30 io_in[0]
*31 io_in[10]
*32 io_in[11]
*33 io_in[12]
*34 io_in[13]
*35 io_in[14]
*36 io_in[15]
*37 io_in[16]
*38 io_in[17]
*39 io_in[18]
*40 io_in[19]
*41 io_in[1]
*42 io_in[20]
*43 io_in[21]
*44 io_in[22]
*45 io_in[23]
*46 io_in[24]
*47 io_in[25]
*48 io_in[26]
*49 io_in[27]
*50 io_in[28]
*51 io_in[29]
*52 io_in[2]
*53 io_in[30]
*54 io_in[31]
*55 io_in[32]
*56 io_in[33]
*57 io_in[34]
*58 io_in[35]
*59 io_in[36]
*60 io_in[37]
*61 io_in[3]
*62 io_in[4]
*63 io_in[5]
*64 io_in[6]
*65 io_in[7]
*66 io_in[8]
*67 io_in[9]
*68 io_oeb[0]
*69 io_oeb[10]
*70 io_oeb[11]
*71 io_oeb[12]
*72 io_oeb[13]
*73 io_oeb[14]
*74 io_oeb[15]
*75 io_oeb[16]
*76 io_oeb[17]
*77 io_oeb[18]
*78 io_oeb[19]
*79 io_oeb[1]
*80 io_oeb[20]
*81 io_oeb[21]
*82 io_oeb[22]
*83 io_oeb[23]
*84 io_oeb[24]
*85 io_oeb[25]
*86 io_oeb[26]
*87 io_oeb[27]
*88 io_oeb[28]
*89 io_oeb[29]
*90 io_oeb[2]
*91 io_oeb[30]
*92 io_oeb[31]
*93 io_oeb[32]
*94 io_oeb[33]
*95 io_oeb[34]
*96 io_oeb[35]
*97 io_oeb[36]
*98 io_oeb[37]
*99 io_oeb[3]
*100 io_oeb[4]
*101 io_oeb[5]
*102 io_oeb[6]
*103 io_oeb[7]
*104 io_oeb[8]
*105 io_oeb[9]
*106 io_out[0]
*107 io_out[10]
*108 io_out[11]
*109 io_out[12]
*110 io_out[13]
*111 io_out[14]
*112 io_out[15]
*113 io_out[16]
*114 io_out[17]
*115 io_out[18]
*116 io_out[19]
*117 io_out[1]
*118 io_out[20]
*119 io_out[21]
*120 io_out[22]
*121 io_out[23]
*122 io_out[24]
*123 io_out[25]
*124 io_out[26]
*125 io_out[27]
*126 io_out[28]
*127 io_out[29]
*128 io_out[2]
*129 io_out[30]
*130 io_out[31]
*131 io_out[32]
*132 io_out[33]
*133 io_out[34]
*134 io_out[35]
*135 io_out[36]
*136 io_out[37]
*137 io_out[3]
*138 io_out[4]
*139 io_out[5]
*140 io_out[6]
*141 io_out[7]
*142 io_out[8]
*143 io_out[9]
*146 wb_clk_i
*147 wb_rst_i
*148 wbs_ack_o
*149 wbs_adr_i[0]
*150 wbs_adr_i[10]
*151 wbs_adr_i[11]
*152 wbs_adr_i[12]
*153 wbs_adr_i[13]
*154 wbs_adr_i[14]
*155 wbs_adr_i[15]
*156 wbs_adr_i[16]
*157 wbs_adr_i[17]
*158 wbs_adr_i[18]
*159 wbs_adr_i[19]
*160 wbs_adr_i[1]
*161 wbs_adr_i[20]
*162 wbs_adr_i[21]
*163 wbs_adr_i[22]
*164 wbs_adr_i[23]
*165 wbs_adr_i[24]
*166 wbs_adr_i[25]
*167 wbs_adr_i[26]
*168 wbs_adr_i[27]
*169 wbs_adr_i[28]
*170 wbs_adr_i[29]
*171 wbs_adr_i[2]
*172 wbs_adr_i[30]
*173 wbs_adr_i[31]
*174 wbs_adr_i[3]
*175 wbs_adr_i[4]
*176 wbs_adr_i[5]
*177 wbs_adr_i[6]
*178 wbs_adr_i[7]
*179 wbs_adr_i[8]
*180 wbs_adr_i[9]
*181 wbs_cyc_i
*182 wbs_dat_i[0]
*183 wbs_dat_i[10]
*184 wbs_dat_i[11]
*185 wbs_dat_i[12]
*186 wbs_dat_i[13]
*187 wbs_dat_i[14]
*188 wbs_dat_i[15]
*189 wbs_dat_i[16]
*190 wbs_dat_i[17]
*191 wbs_dat_i[18]
*192 wbs_dat_i[19]
*193 wbs_dat_i[1]
*194 wbs_dat_i[20]
*195 wbs_dat_i[21]
*196 wbs_dat_i[22]
*197 wbs_dat_i[23]
*198 wbs_dat_i[24]
*199 wbs_dat_i[25]
*200 wbs_dat_i[26]
*201 wbs_dat_i[27]
*202 wbs_dat_i[28]
*203 wbs_dat_i[29]
*204 wbs_dat_i[2]
*205 wbs_dat_i[30]
*206 wbs_dat_i[31]
*207 wbs_dat_i[3]
*208 wbs_dat_i[4]
*209 wbs_dat_i[5]
*210 wbs_dat_i[6]
*211 wbs_dat_i[7]
*212 wbs_dat_i[8]
*213 wbs_dat_i[9]
*214 wbs_dat_o[0]
*215 wbs_dat_o[10]
*216 wbs_dat_o[11]
*217 wbs_dat_o[12]
*218 wbs_dat_o[13]
*219 wbs_dat_o[14]
*220 wbs_dat_o[15]
*221 wbs_dat_o[16]
*222 wbs_dat_o[17]
*223 wbs_dat_o[18]
*224 wbs_dat_o[19]
*225 wbs_dat_o[1]
*226 wbs_dat_o[20]
*227 wbs_dat_o[21]
*228 wbs_dat_o[22]
*229 wbs_dat_o[23]
*230 wbs_dat_o[24]
*231 wbs_dat_o[25]
*232 wbs_dat_o[26]
*233 wbs_dat_o[27]
*234 wbs_dat_o[28]
*235 wbs_dat_o[29]
*236 wbs_dat_o[2]
*237 wbs_dat_o[30]
*238 wbs_dat_o[31]
*239 wbs_dat_o[3]
*240 wbs_dat_o[4]
*241 wbs_dat_o[5]
*242 wbs_dat_o[6]
*243 wbs_dat_o[7]
*244 wbs_dat_o[8]
*245 wbs_dat_o[9]
*246 wbs_sel_i[0]
*247 wbs_sel_i[1]
*248 wbs_sel_i[2]
*249 wbs_sel_i[3]
*250 wbs_stb_i
*251 wbs_we_i
*252 x1\[0\]
*253 x1\[10\]
*254 x1\[11\]
*255 x1\[12\]
*256 x1\[13\]
*257 x1\[14\]
*258 x1\[15\]
*259 x1\[1\]
*260 x1\[2\]
*261 x1\[3\]
*262 x1\[4\]
*263 x1\[5\]
*264 x1\[6\]
*265 x1\[7\]
*266 x1\[8\]
*267 x1\[9\]
*268 x2\[0\]
*269 x2\[10\]
*270 x2\[11\]
*271 x2\[12\]
*272 x2\[13\]
*273 x2\[14\]
*274 x2\[15\]
*275 x2\[1\]
*276 x2\[2\]
*277 x2\[3\]
*278 x2\[4\]
*279 x2\[5\]
*280 x2\[6\]
*281 x2\[7\]
*282 x2\[8\]
*283 x2\[9\]
*284 x3\[0\]
*285 x3\[10\]
*286 x3\[11\]
*287 x3\[12\]
*288 x3\[13\]
*289 x3\[14\]
*290 x3\[15\]
*291 x3\[1\]
*292 x3\[2\]
*293 x3\[3\]
*294 x3\[4\]
*295 x3\[5\]
*296 x3\[6\]
*297 x3\[7\]
*298 x3\[8\]
*299 x3\[9\]
*300 x4\[0\]
*301 x4\[10\]
*302 x4\[11\]
*303 x4\[12\]
*304 x4\[13\]
*305 x4\[14\]
*306 x4\[15\]
*307 x4\[1\]
*308 x4\[2\]
*309 x4\[3\]
*310 x4\[4\]
*311 x4\[5\]
*312 x4\[6\]
*313 x4\[7\]
*314 x4\[8\]
*315 x4\[9\]
*316 x5\[0\]
*317 x5\[10\]
*318 x5\[11\]
*319 x5\[12\]
*320 x5\[13\]
*321 x5\[14\]
*322 x5\[15\]
*323 x5\[1\]
*324 x5\[2\]
*325 x5\[3\]
*326 x5\[4\]
*327 x5\[5\]
*328 x5\[6\]
*329 x5\[7\]
*330 x5\[8\]
*331 x5\[9\]
*332 mprj1
*333 mprj2
*334 mprj3
*335 mprj4
*336 mprj5
*337 ro1
*338 ro10
*339 ro11
*340 ro12
*341 ro13
*342 ro14
*343 ro15
*344 ro16
*345 ro2
*346 ro3
*347 ro4
*348 ro5
*349 ro6
*350 ro7
*351 ro8
*352 ro9

*PORTS
analog_io[0] I
analog_io[10] I
analog_io[11] I
analog_io[12] I
analog_io[13] I
analog_io[14] I
analog_io[15] I
analog_io[16] I
analog_io[17] I
analog_io[18] I
analog_io[19] I
analog_io[1] I
analog_io[20] I
analog_io[21] I
analog_io[22] I
analog_io[23] I
analog_io[24] I
analog_io[25] I
analog_io[26] I
analog_io[27] I
analog_io[28] I
analog_io[2] I
analog_io[3] I
analog_io[4] I
analog_io[5] I
analog_io[6] I
analog_io[7] I
analog_io[8] I
analog_io[9] I
io_in[0] I
io_in[10] I
io_in[11] I
io_in[12] I
io_in[13] I
io_in[14] I
io_in[15] I
io_in[16] I
io_in[17] I
io_in[18] I
io_in[19] I
io_in[1] I
io_in[20] I
io_in[21] I
io_in[22] I
io_in[23] I
io_in[24] I
io_in[25] I
io_in[26] I
io_in[27] I
io_in[28] I
io_in[29] I
io_in[2] I
io_in[30] I
io_in[31] I
io_in[32] I
io_in[33] I
io_in[34] I
io_in[35] I
io_in[36] I
io_in[37] I
io_in[3] I
io_in[4] I
io_in[5] I
io_in[6] I
io_in[7] I
io_in[8] I
io_in[9] I
io_oeb[0] O
io_oeb[10] O
io_oeb[11] O
io_oeb[12] O
io_oeb[13] O
io_oeb[14] O
io_oeb[15] O
io_oeb[16] O
io_oeb[17] O
io_oeb[18] O
io_oeb[19] O
io_oeb[1] O
io_oeb[20] O
io_oeb[21] O
io_oeb[22] O
io_oeb[23] O
io_oeb[24] O
io_oeb[25] O
io_oeb[26] O
io_oeb[27] O
io_oeb[28] O
io_oeb[29] O
io_oeb[2] O
io_oeb[30] O
io_oeb[31] O
io_oeb[32] O
io_oeb[33] O
io_oeb[34] O
io_oeb[35] O
io_oeb[36] O
io_oeb[37] O
io_oeb[3] O
io_oeb[4] O
io_oeb[5] O
io_oeb[6] O
io_oeb[7] O
io_oeb[8] O
io_oeb[9] O
io_out[0] O
io_out[10] O
io_out[11] O
io_out[12] O
io_out[13] O
io_out[14] O
io_out[15] O
io_out[16] O
io_out[17] O
io_out[18] O
io_out[19] O
io_out[1] O
io_out[20] O
io_out[21] O
io_out[22] O
io_out[23] O
io_out[24] O
io_out[25] O
io_out[26] O
io_out[27] O
io_out[28] O
io_out[29] O
io_out[2] O
io_out[30] O
io_out[31] O
io_out[32] O
io_out[33] O
io_out[34] O
io_out[35] O
io_out[36] O
io_out[37] O
io_out[3] O
io_out[4] O
io_out[5] O
io_out[6] O
io_out[7] O
io_out[8] O
io_out[9] O
wb_clk_i I
wb_rst_i I
wbs_ack_o O
wbs_adr_i[0] I
wbs_adr_i[10] I
wbs_adr_i[11] I
wbs_adr_i[12] I
wbs_adr_i[13] I
wbs_adr_i[14] I
wbs_adr_i[15] I
wbs_adr_i[16] I
wbs_adr_i[17] I
wbs_adr_i[18] I
wbs_adr_i[19] I
wbs_adr_i[1] I
wbs_adr_i[20] I
wbs_adr_i[21] I
wbs_adr_i[22] I
wbs_adr_i[23] I
wbs_adr_i[24] I
wbs_adr_i[25] I
wbs_adr_i[26] I
wbs_adr_i[27] I
wbs_adr_i[28] I
wbs_adr_i[29] I
wbs_adr_i[2] I
wbs_adr_i[30] I
wbs_adr_i[31] I
wbs_adr_i[3] I
wbs_adr_i[4] I
wbs_adr_i[5] I
wbs_adr_i[6] I
wbs_adr_i[7] I
wbs_adr_i[8] I
wbs_adr_i[9] I
wbs_cyc_i I
wbs_dat_i[0] I
wbs_dat_i[10] I
wbs_dat_i[11] I
wbs_dat_i[12] I
wbs_dat_i[13] I
wbs_dat_i[14] I
wbs_dat_i[15] I
wbs_dat_i[16] I
wbs_dat_i[17] I
wbs_dat_i[18] I
wbs_dat_i[19] I
wbs_dat_i[1] I
wbs_dat_i[20] I
wbs_dat_i[21] I
wbs_dat_i[22] I
wbs_dat_i[23] I
wbs_dat_i[24] I
wbs_dat_i[25] I
wbs_dat_i[26] I
wbs_dat_i[27] I
wbs_dat_i[28] I
wbs_dat_i[29] I
wbs_dat_i[2] I
wbs_dat_i[30] I
wbs_dat_i[31] I
wbs_dat_i[3] I
wbs_dat_i[4] I
wbs_dat_i[5] I
wbs_dat_i[6] I
wbs_dat_i[7] I
wbs_dat_i[8] I
wbs_dat_i[9] I
wbs_dat_o[0] O
wbs_dat_o[10] O
wbs_dat_o[11] O
wbs_dat_o[12] O
wbs_dat_o[13] O
wbs_dat_o[14] O
wbs_dat_o[15] O
wbs_dat_o[16] O
wbs_dat_o[17] O
wbs_dat_o[18] O
wbs_dat_o[19] O
wbs_dat_o[1] O
wbs_dat_o[20] O
wbs_dat_o[21] O
wbs_dat_o[22] O
wbs_dat_o[23] O
wbs_dat_o[24] O
wbs_dat_o[25] O
wbs_dat_o[26] O
wbs_dat_o[27] O
wbs_dat_o[28] O
wbs_dat_o[29] O
wbs_dat_o[2] O
wbs_dat_o[30] O
wbs_dat_o[31] O
wbs_dat_o[3] O
wbs_dat_o[4] O
wbs_dat_o[5] O
wbs_dat_o[6] O
wbs_dat_o[7] O
wbs_dat_o[8] O
wbs_dat_o[9] O
wbs_sel_i[0] I
wbs_sel_i[1] I
wbs_sel_i[2] I
wbs_sel_i[3] I
wbs_stb_i I
wbs_we_i I

*D_NET *30 0.392883
*CONN
*P io_in[0] I
*I *344:s1 I *D sky130_osu_ring_oscillator_mpr2ya_8_b0r2
*I *343:s1 I *D sky130_osu_ring_oscillator_mpr2xa_8_b0r2
*I *347:s1 I *D sky130_osu_ring_oscillator_mpr2ct_8_b0r1
*I *337:s1 I *D sky130_osu_ring_oscillator_mpr2aa_8_b0r1
*I *345:s1 I *D sky130_osu_ring_oscillator_mpr2at_8_b0r1
*I *346:s1 I *D sky130_osu_ring_oscillator_mpr2ca_8_b0r1
*I *348:s1 I *D sky130_osu_ring_oscillator_mpr2ea_8_b0r1
*I *349:s1 I *D sky130_osu_ring_oscillator_mpr2et_8_b0r1
*I *350:s1 I *D sky130_osu_ring_oscillator_mpr2xa_8_b0r1
*I *351:s1 I *D sky130_osu_ring_oscillator_mpr2ya_8_b0r1
*I *352:s1 I *D sky130_osu_ring_oscillator_mpr2aa_8_b0r2
*I *338:s1 I *D sky130_osu_ring_oscillator_mpr2at_8_b0r2
*I *339:s1 I *D sky130_osu_ring_oscillator_mpr2ca_8_b0r2
*I *340:s1 I *D sky130_osu_ring_oscillator_mpr2ct_8_b0r2
*I *341:s1 I *D sky130_osu_ring_oscillator_mpr2ea_8_b0r2
*I *342:s1 I *D sky130_osu_ring_oscillator_mpr2et_8_b0r2
*CAP
1 io_in[0] 0.0642872
2 *344:s1 0.000611187
3 *343:s1 0.00027699
4 *347:s1 0.000149526
5 *337:s1 0.000483167
6 *345:s1 0.000530596
7 *346:s1 0.000176034
8 *348:s1 0.000383189
9 *349:s1 0.000550614
10 *350:s1 0.000379594
11 *351:s1 0.000335964
12 *352:s1 0.000458916
13 *338:s1 0.00175946
14 *339:s1 0.000251986
15 *340:s1 0.000211826
16 *341:s1 0.000454378
17 *342:s1 0.000613211
18 *30:268 0.00301717
19 *30:253 0.00350283
20 *30:249 0.00460892
21 *30:235 0.00883389
22 *30:233 0.00902323
23 *30:218 0.00712967
24 *30:216 0.00310339
25 *30:199 0.0027668
26 *30:197 0.00287469
27 *30:180 0.00279959
28 *30:172 0.00292595
29 *30:161 0.00519898
30 *30:146 0.00638491
31 *30:144 0.00347516
32 *30:140 0.000779612
33 *30:124 0.00411822
34 *30:107 0.00508567
35 *30:95 0.00524368
36 *30:93 0.00402254
37 *30:73 0.00233502
38 *30:71 0.00300698
39 *30:50 0.00267616
40 *30:46 0.00304068
41 *30:31 0.00617386
42 *30:29 0.00297121
43 *30:25 0.000368707
44 *30:23 0.00266039
45 *30:21 0.00311096
46 *30:13 0.00315303
47 *30:9 0.0392841
48 *30:7 0.0371928
49 *30:5 0.0642872
50 *337:s1 *337:start 2.20608e-05
51 *338:s1 *267:11 0
52 *340:s1 *340:start 1.33269e-05
53 *341:s1 *341:start 2.20608e-05
54 *342:s1 *342:start 1.55997e-05
55 *343:s1 *343:s2 7.82974e-05
56 *345:s1 *345:start 7.95893e-05
57 *349:s1 *349:start 1.33269e-05
58 *350:s1 *350:start 2.65814e-06
59 *351:s1 *351:start 1.23307e-05
60 *352:s1 *352:start 4.77769e-05
61 *30:9 *344:s5 2.00699e-05
62 *30:9 *62:33 0.000756239
63 *30:13 *41:13 0.00439779
64 *30:13 *41:21 0.00157617
65 *30:21 *41:21 0.000456035
66 *30:23 *41:23 0.00451533
67 *30:23 *41:27 0.000765335
68 *30:23 *41:42 6.45197e-05
69 *30:29 *343:s2 3.81908e-06
70 *30:29 *343:start 5.8403e-05
71 *30:31 *41:42 0.000392762
72 *30:31 *52:75 0.00351331
73 *30:46 *41:42 2.03321e-05
74 *30:46 *41:69 0.00236186
75 *30:46 *52:75 0.000417585
76 *30:50 *41:69 0.000814767
77 *30:71 *41:69 0.000605046
78 *30:71 *41:73 2.03321e-05
79 *30:71 *41:101 0.00256726
80 *30:73 *41:101 0.0016069
81 *30:93 *41:101 0.000121286
82 *30:107 *41:141 0.00346873
83 *30:144 *338:start 3.10231e-05
84 *30:146 *41:169 0.000744029
85 *30:146 *41:196 0.00613841
86 *30:161 *41:196 0.00058311
87 *30:161 *41:224 0.00628061
88 *30:172 *41:224 0.000438535
89 *30:172 *41:252 0.00401606
90 *30:180 *41:252 0.0013769
91 *30:197 *41:252 0.000446246
92 *30:197 *41:277 0.0007407
93 *30:197 *41:279 0.00116165
94 *30:199 *41:279 0.00385489
95 *30:216 *41:279 0.000828859
96 *30:216 *41:308 0.000903237
97 *30:218 *41:308 0.00138223
98 *30:218 *41:316 0.00214181
99 *30:233 *41:316 0.000230878
100 *30:268 *41:398 0.00568335
*RES
1 io_in[0] *30:5 172.517 
2 *30:5 *30:7 0.5 
3 *30:7 *30:9 653.925 
4 *30:9 *30:13 9.33627 
5 *30:13 *30:21 1.982 
6 *30:21 *30:23 70.1025 
7 *30:23 *30:25 2 
8 *30:25 *30:29 3.83 
9 *30:29 *30:31 77.625 
10 *30:31 *342:s1 14.2612 
11 *30:31 *30:46 69.8175 
12 *30:46 *30:50 9.9825 
13 *30:50 *341:s1 13.8337 
14 *30:50 *30:71 49.2975 
15 *30:71 *30:73 31.0575 
16 *30:73 *340:s1 5.705 
17 *30:73 *30:93 5.54657 
18 *30:93 *30:95 55.185 
19 *30:95 *30:107 30.8809 
20 *30:107 *339:s1 1.1802 
21 *30:107 *30:124 48.215 
22 *30:124 *338:s1 27.2437 
23 *338:s1 *30:140 6.84875 
24 *30:140 *30:144 10.73 
25 *30:144 *30:146 79.5375 
26 *30:146 *352:s1 11.5275 
27 *30:146 *30:161 79.2825 
28 *30:161 *351:s1 9.43875 
29 *30:161 *30:172 51.4275 
30 *30:172 *30:180 27.3075 
31 *30:180 *350:s1 12.4425 
32 *30:180 *30:197 36.4575 
33 *30:197 *30:199 42.9975 
34 *30:199 *349:s1 13.23 
35 *30:199 *30:216 20.1075 
36 *30:216 *30:218 60.9675 
37 *30:218 *348:s1 10.4062 
38 *30:218 *30:233 77.7525 
39 *30:233 *30:235 78.5175 
40 *30:235 *346:s1 5.11625 
41 *30:235 *30:249 72.9825 
42 *30:249 *30:253 7.9275 
43 *30:253 *345:s1 13.2375 
44 *30:253 *30:268 69.72 
45 *30:268 *337:s1 12.0825 
46 *30:233 *347:s1 4.72625 
47 *30:25 *343:s1 7.08625 
48 *30:13 *344:s1 12.2153 
*END

*D_NET *41 0.416989
*CONN
*P io_in[1] I
*I *344:s2 I *D sky130_osu_ring_oscillator_mpr2ya_8_b0r2
*I *346:s2 I *D sky130_osu_ring_oscillator_mpr2ca_8_b0r1
*I *345:s2 I *D sky130_osu_ring_oscillator_mpr2at_8_b0r1
*I *337:s2 I *D sky130_osu_ring_oscillator_mpr2aa_8_b0r1
*I *347:s2 I *D sky130_osu_ring_oscillator_mpr2ct_8_b0r1
*I *348:s2 I *D sky130_osu_ring_oscillator_mpr2ea_8_b0r1
*I *349:s2 I *D sky130_osu_ring_oscillator_mpr2et_8_b0r1
*I *350:s2 I *D sky130_osu_ring_oscillator_mpr2xa_8_b0r1
*I *351:s2 I *D sky130_osu_ring_oscillator_mpr2ya_8_b0r1
*I *352:s2 I *D sky130_osu_ring_oscillator_mpr2aa_8_b0r2
*I *338:s2 I *D sky130_osu_ring_oscillator_mpr2at_8_b0r2
*I *339:s2 I *D sky130_osu_ring_oscillator_mpr2ca_8_b0r2
*I *340:s2 I *D sky130_osu_ring_oscillator_mpr2ct_8_b0r2
*I *341:s2 I *D sky130_osu_ring_oscillator_mpr2ea_8_b0r2
*I *342:s2 I *D sky130_osu_ring_oscillator_mpr2et_8_b0r2
*I *343:s2 I *D sky130_osu_ring_oscillator_mpr2xa_8_b0r2
*CAP
1 io_in[1] 0.0568432
2 *344:s2 0.000620035
3 *346:s2 0.000408038
4 *345:s2 0.00206198
5 *337:s2 0.00182764
6 *347:s2 0.00209231
7 *348:s2 0.00028082
8 *349:s2 0.00217583
9 *350:s2 0.00133152
10 *351:s2 0.00176459
11 *352:s2 0.00186012
12 *338:s2 0.00183252
13 *339:s2 0.000430576
14 *340:s2 0.00171635
15 *341:s2 0.00194125
16 *342:s2 0.00153594
17 *343:s2 0.00102861
18 *41:398 0.00420869
19 *41:396 0.00238106
20 *41:394 0.00235519
21 *41:390 0.00543293
22 *41:388 0.00681452
23 *41:382 0.00588537
24 *41:380 0.00419376
25 *41:340 0.00426271
26 *41:316 0.00533575
27 *41:308 0.00428089
28 *41:279 0.00659077
29 *41:277 0.00303306
30 *41:252 0.00461969
31 *41:247 0
32 *41:224 0.00754347
33 *41:196 0.00764579
34 *41:169 0.00713472
35 *41:167 0.00555699
36 *41:141 0.0053782
37 *41:131 0.00448658
38 *41:101 0.00773564
39 *41:73 0.00534705
40 *41:69 0.00300432
41 *41:42 0.00758484
42 *41:27 0.00471237
43 *41:23 0.00250296
44 *41:21 0.00294225
45 *41:13 0.00780864
46 *41:9 0.0339562
47 *41:7 0.0277765
48 *41:5 0.0568432
49 *342:s2 *52:79 0.00274258
50 *343:s2 *343:start 2.75229e-05
51 *347:s2 *277:12 0
52 *41:13 *344:s3 0.00168184
53 *41:13 *52:13 0.00789574
54 *41:42 *52:75 0.00674761
55 *41:388 *260:11 0
56 *343:s1 *343:s2 7.82974e-05
57 *30:13 *41:13 0.00439779
58 *30:13 *41:21 0.00157617
59 *30:21 *41:21 0.000456035
60 *30:23 *41:23 0.00451533
61 *30:23 *41:27 0.000765335
62 *30:23 *41:42 6.45197e-05
63 *30:29 *343:s2 3.81908e-06
64 *30:31 *41:42 0.000392762
65 *30:46 *41:42 2.03321e-05
66 *30:46 *41:69 0.00236186
67 *30:50 *41:69 0.000814767
68 *30:71 *41:69 0.000605046
69 *30:71 *41:73 2.03321e-05
70 *30:71 *41:101 0.00256726
71 *30:73 *41:101 0.0016069
72 *30:93 *41:101 0.000121286
73 *30:107 *41:141 0.00346873
74 *30:146 *41:169 0.000744029
75 *30:146 *41:196 0.00613841
76 *30:161 *41:196 0.00058311
77 *30:161 *41:224 0.00628061
78 *30:172 *41:224 0.000438535
79 *30:172 *41:252 0.00401606
80 *30:180 *41:252 0.0013769
81 *30:197 *41:252 0.000446246
82 *30:197 *41:277 0.0007407
83 *30:197 *41:279 0.00116165
84 *30:199 *41:279 0.00385489
85 *30:216 *41:279 0.000828859
86 *30:216 *41:308 0.000903237
87 *30:218 *41:308 0.00138223
88 *30:218 *41:316 0.00214181
89 *30:233 *41:316 0.000230878
90 *30:268 *41:398 0.00568335
*RES
1 io_in[1] *41:5 152.415 
2 *41:5 *41:7 0.5 
3 *41:7 *41:9 505.515 
4 *41:9 *41:13 27.1659 
5 *41:13 *41:21 4.3988 
6 *41:21 *41:23 52.125 
7 *41:23 *41:27 15.2175 
8 *41:27 *343:s2 24.2775 
9 *41:27 *41:42 87.4425 
10 *41:42 *342:s2 15.7662 
11 *41:42 *41:69 77.115 
12 *41:69 *41:73 1.41 
13 *41:73 *341:s2 13.7913 
14 *41:73 *41:101 82.215 
15 *41:101 *340:s2 18.0258 
16 *41:101 *41:131 46.995 
17 *41:131 *41:141 30.7633 
18 *41:141 *339:s2 4.83478 
19 *41:141 *41:167 41.5633 
20 *41:167 *41:169 44.985 
21 *41:169 *338:s2 24.6664 
22 *41:169 *41:196 77.625 
23 *41:196 *352:s2 12.7918 
24 *41:196 *41:224 77.625 
25 *41:224 *351:s2 11.2468 
26 *351:s2 *41:247 0.163333 
27 *41:224 *41:252 77.625 
28 *41:252 *350:s2 6.86052 
29 *41:252 *41:277 13.7875 
30 *41:277 *41:279 74.6925 
31 *41:279 *349:s2 16.7527 
32 *41:279 *41:308 47.025 
33 *41:308 *41:316 32.2453 
34 *41:316 *348:s2 4.58527 
35 *41:316 *41:340 46.59 
36 *41:340 *347:s2 30.6299 
37 *347:s2 *41:380 3.49777 
38 *41:380 *41:382 68.955 
39 *41:382 *41:388 5.46627 
40 *41:388 *41:390 93.435 
41 *41:390 *41:394 1.29547 
42 *41:394 *41:396 0.5 
43 *41:396 *41:398 66.915 
44 *41:398 *337:s2 7.68297 
45 *41:394 *345:s2 13.0674 
46 *41:382 *346:s2 9.1625 
47 *41:13 *344:s2 10.6727 
*END

*D_NET *52 0.434254
*CONN
*P io_in[2] I
*I *346:s3 I *D sky130_osu_ring_oscillator_mpr2ca_8_b0r1
*I *337:s3 I *D sky130_osu_ring_oscillator_mpr2aa_8_b0r1
*I *345:s3 I *D sky130_osu_ring_oscillator_mpr2at_8_b0r1
*I *347:s3 I *D sky130_osu_ring_oscillator_mpr2ct_8_b0r1
*I *348:s3 I *D sky130_osu_ring_oscillator_mpr2ea_8_b0r1
*I *349:s3 I *D sky130_osu_ring_oscillator_mpr2et_8_b0r1
*I *350:s3 I *D sky130_osu_ring_oscillator_mpr2xa_8_b0r1
*I *351:s3 I *D sky130_osu_ring_oscillator_mpr2ya_8_b0r1
*I *352:s3 I *D sky130_osu_ring_oscillator_mpr2aa_8_b0r2
*I *338:s3 I *D sky130_osu_ring_oscillator_mpr2at_8_b0r2
*I *339:s3 I *D sky130_osu_ring_oscillator_mpr2ca_8_b0r2
*I *340:s3 I *D sky130_osu_ring_oscillator_mpr2ct_8_b0r2
*I *341:s3 I *D sky130_osu_ring_oscillator_mpr2ea_8_b0r2
*I *342:s3 I *D sky130_osu_ring_oscillator_mpr2et_8_b0r2
*I *343:s3 I *D sky130_osu_ring_oscillator_mpr2xa_8_b0r2
*I *344:s3 I *D sky130_osu_ring_oscillator_mpr2ya_8_b0r2
*CAP
1 io_in[2] 0.0535066
2 *346:s3 0.000620138
3 *337:s3 0.00246384
4 *345:s3 0.00197107
5 *347:s3 0.000700309
6 *348:s3 0.0023717
7 *349:s3 0.00203965
8 *350:s3 0.00181001
9 *351:s3 0.0017646
10 *352:s3 0.00227972
11 *338:s3 0.00225721
12 *339:s3 0.00192863
13 *340:s3 0.00189491
14 *341:s3 0.00231726
15 *342:s3 0.000538285
16 *343:s3 0.000645484
17 *344:s3 0.00194727
18 *52:479 0.00517735
19 *52:477 0.00271351
20 *52:453 0.00295391
21 *52:445 0.00352301
22 *52:443 0.00481053
23 *52:433 0.00335748
24 *52:429 0.00355883
25 *52:427 0.00309184
26 *52:406 0.00238239
27 *52:402 0.0049796
28 *52:400 0.00373452
29 *52:370 0.00280869
30 *52:368 0.00286942
31 *52:342 0.00532925
32 *52:334 0.00371161
33 *52:332 0.00514309
34 *52:302 0.00366167
35 *52:300 0.00200635
36 *52:272 0.00403485
37 *52:264 0.0030134
38 *52:236 0.00530764
39 *52:230 0.00319805
40 *52:228 0.00291963
41 *52:204 0.00261618
42 *52:200 0.0029006
43 *52:198 0.00338585
44 *52:169 0.00289474
45 *52:165 0.00273277
46 *52:163 0.00322703
47 *52:156 0
48 *52:137 0.00573494
49 *52:135 0.00343598
50 *52:109 0.00252936
51 *52:107 0.00439108
52 *52:105 0.0059011
53 *52:79 0.00409538
54 *52:75 0.00328929
55 *52:73 0.00344486
56 *52:45 0.00468902
57 *52:39 0.00453542
58 *52:37 0.00269453
59 *52:13 0.0139267
60 *52:9 0.0316084
61 *52:7 0.0196289
62 *52:5 0.0535066
63 *338:s3 *314:11 0
64 *339:s3 *339:s4 0.00162699
65 *340:s3 *340:s4 0.00258224
66 *340:s3 *61:117 0.000156989
67 *345:s3 *300:15 0.000372028
68 *346:s3 *292:11 0
69 *348:s3 *348:s4 0
70 *348:s3 *61:335 0
71 *349:s3 *294:7 0
72 *349:s3 *310:13 0.000857373
73 *350:s3 *350:s4 0
74 *350:s3 *61:262 0.000646537
75 *351:s3 *296:12 0.000872025
76 *352:s3 *313:18 0.000127412
77 *52:39 *61:59 0.00103119
78 *52:39 *62:33 0.00557226
79 *52:39 *62:47 0.000552772
80 *52:39 *62:49 0
81 *52:107 *61:89 0
82 *52:107 *61:93 0
83 *52:107 *62:93 0
84 *52:137 *61:109 0
85 *52:137 *61:117 0
86 *52:137 *62:93 0.00287269
87 *52:137 *62:105 0.00062584
88 *52:137 *62:125 0
89 *52:137 *302:19 0
90 *52:137 *318:15 1.03592e-05
91 *52:163 *61:147 0
92 *52:165 *61:147 0.00188742
93 *52:165 *61:153 0.00117121
94 *52:165 *317:23 8.41015e-06
95 *52:169 *339:s4 0.000272873
96 *52:169 *61:176 0.000103154
97 *52:169 *62:147 0.000143096
98 *52:198 *335:data_in[9] 0.000357104
99 *52:198 *62:147 0
100 *52:200 *61:178 0.00472414
101 *52:200 *61:202 0.000889227
102 *52:200 *271:18 0.000423593
103 *52:200 *312:18 0
104 *52:200 *331:13 0
105 *52:204 *311:22 5.23463e-05
106 *52:204 *312:22 0.000223663
107 *52:204 *314:11 0
108 *52:230 *61:204 0.00628226
109 *52:230 *62:194 0
110 *52:230 *311:14 0
111 *52:264 *61:256 0.000476083
112 *52:264 *313:18 0.00256338
113 *52:272 *61:256 0.000446241
114 *52:272 *62:214 0.000114057
115 *52:272 *62:216 0.000260302
116 *52:300 *61:256 0.00269482
117 *52:300 *62:216 0.00401348
118 *52:300 *62:220 0.000890854
119 *52:300 *62:242 0.000150303
120 *52:300 *62:244 0
121 *52:332 *61:262 4.84095e-05
122 *52:334 *62:278 0
123 *52:334 *62:280 0.000821225
124 *52:334 *324:13 0
125 *52:342 *61:331 0.000156345
126 *52:342 *294:13 0.000229931
127 *52:342 *310:13 0.000312939
128 *52:368 *61:331 0.00361726
129 *52:368 *62:302 2.95526e-05
130 *52:368 *326:17 3.98098e-05
131 *52:400 *62:300 0.000342812
132 *52:400 *62:302 0
133 *52:400 *291:18 0
134 *52:402 *61:365 0.00286625
135 *52:402 *62:302 0
136 *52:402 *62:320 0.000247618
137 *52:402 *291:18 0
138 *52:402 *325:15 5.94427e-06
139 *52:406 *347:s4 0
140 *52:406 *61:365 0
141 *52:406 *260:17 0
142 *52:433 *292:11 0
143 *52:443 *62:320 0
144 *52:443 *62:336 0
145 *52:443 *260:11 0
146 *52:443 *291:18 0
147 *52:443 *292:11 0
148 *52:445 *345:s5 0
149 *52:445 *61:420 0.00559762
150 *52:445 *62:336 0
151 *52:445 *291:18 0.000512232
152 *52:453 *345:s5 8.32311e-05
153 *52:453 *61:420 0.000537229
154 *52:453 *300:15 0.000168596
155 *52:453 *323:16 1.87784e-05
156 *52:479 *337:s4 0.000102192
157 *52:479 *61:443 0.00295105
158 *342:s2 *52:79 0.00274258
159 *30:31 *52:75 0.00351331
160 *30:46 *52:75 0.000417585
161 *41:13 *344:s3 0.00168184
162 *41:13 *52:13 0.00789574
163 *41:42 *52:75 0.00674761
*RES
1 io_in[2] *52:5 134.061 
2 *52:5 *52:7 0.5 
3 *52:7 *52:9 357.105 
4 *52:9 *52:13 38.994 
5 *52:13 *344:s3 16.2653 
6 *52:13 *52:37 0.5 
7 *52:37 *52:39 76.095 
8 *52:39 *52:45 5.81587 
9 *52:45 *343:s3 10.5133 
10 *52:45 *52:73 8.66007 
11 *52:73 *52:75 75.585 
12 *52:75 *52:79 7.3552 
13 *52:79 *342:s3 9.31828 
14 *52:79 *52:105 4.5584 
15 *52:105 *52:107 79.155 
16 *52:107 *52:109 0.5 
17 *52:109 *341:s3 13.4694 
18 *52:109 *52:135 1.0624 
19 *52:135 *52:137 81.195 
20 *52:137 *340:s3 18.6669 
21 *340:s3 *52:156 0.163333 
22 *52:137 *52:163 11.115 
23 *52:163 *52:165 67.92 
24 *52:165 *52:169 1.0624 
25 *52:169 *339:s3 14.1861 
26 *52:169 *52:198 12.4983 
27 *52:198 *52:200 71.505 
28 *52:200 *52:204 1.70333 
29 *52:204 *338:s3 16.2883 
30 *52:204 *52:228 0.5 
31 *52:228 *52:230 78.645 
32 *52:230 *52:236 1.62067 
33 *52:236 *352:s3 17.5502 
34 *52:236 *52:264 66.405 
35 *52:264 *52:272 8.43 
36 *52:272 *351:s3 12.2483 
37 *52:272 *52:300 79.155 
38 *52:300 *52:302 0.5 
39 *52:302 *350:s3 11.1349 
40 *52:302 *52:332 22.5856 
41 *52:332 *52:334 62.655 
42 *52:334 *52:342 5.6014 
43 *52:342 *349:s3 17.3388 
44 *52:342 *52:368 75.075 
45 *52:368 *52:370 0.5 
46 *52:370 *348:s3 14.0092 
47 *52:370 *52:400 5.99567 
48 *52:400 *52:402 73.305 
49 *52:402 *52:406 4.96627 
50 *52:406 *347:s3 7.87223 
51 *52:406 *52:427 0.5 
52 *52:427 *52:429 56.28 
53 *52:429 *52:433 8.13 
54 *52:433 *52:443 15.1228 
55 *52:443 *52:445 72.555 
56 *52:445 *52:453 17.6218 
57 *52:453 *345:s3 13.8282 
58 *52:453 *52:477 0.5 
59 *52:477 *52:479 67.935 
60 *52:479 *337:s3 13.6083 
61 *52:433 *346:s3 13.0025 
*END

*D_NET *61 0.374009
*CONN
*P io_in[3] I
*I *337:s4 I *D sky130_osu_ring_oscillator_mpr2aa_8_b0r1
*I *345:s4 I *D sky130_osu_ring_oscillator_mpr2at_8_b0r1
*I *346:s4 I *D sky130_osu_ring_oscillator_mpr2ca_8_b0r1
*I *347:s4 I *D sky130_osu_ring_oscillator_mpr2ct_8_b0r1
*I *348:s4 I *D sky130_osu_ring_oscillator_mpr2ea_8_b0r1
*I *349:s4 I *D sky130_osu_ring_oscillator_mpr2et_8_b0r1
*I *350:s4 I *D sky130_osu_ring_oscillator_mpr2xa_8_b0r1
*I *351:s4 I *D sky130_osu_ring_oscillator_mpr2ya_8_b0r1
*I *352:s4 I *D sky130_osu_ring_oscillator_mpr2aa_8_b0r2
*I *338:s4 I *D sky130_osu_ring_oscillator_mpr2at_8_b0r2
*I *339:s4 I *D sky130_osu_ring_oscillator_mpr2ca_8_b0r2
*I *340:s4 I *D sky130_osu_ring_oscillator_mpr2ct_8_b0r2
*I *341:s4 I *D sky130_osu_ring_oscillator_mpr2ea_8_b0r2
*I *342:s4 I *D sky130_osu_ring_oscillator_mpr2et_8_b0r2
*I *343:s4 I *D sky130_osu_ring_oscillator_mpr2xa_8_b0r2
*I *344:s4 I *D sky130_osu_ring_oscillator_mpr2ya_8_b0r2
*CAP
1 io_in[3] 0.000793773
2 *337:s4 0.00114834
3 *345:s4 0.000860006
4 *346:s4 0.00142062
5 *347:s4 0.00173308
6 *348:s4 0.000548685
7 *349:s4 0.00378941
8 *350:s4 0.000468444
9 *351:s4 0.00123667
10 *352:s4 0.000322927
11 *338:s4 0.00127407
12 *339:s4 0.00128421
13 *340:s4 0.00155055
14 *341:s4 0.00109413
15 *342:s4 0.00114669
16 *343:s4 0.000151124
17 *344:s4 0.000416781
18 *61:443 0.00354337
19 *61:441 0.00239502
20 *61:424 0.00113957
21 *61:420 0.00178906
22 *61:418 0.00209359
23 *61:391 0.00491418
24 *61:389 0.00290947
25 *61:365 0.00448574
26 *61:353 0.00552155
27 *61:351 0.00276889
28 *61:335 0.00135823
29 *61:331 0.00356132
30 *61:329 0.00375075
31 *61:286 0.00453418
32 *61:262 0.00279902
33 *61:256 0.00469732
34 *61:254 0.00503613
35 *61:232 0.00216229
36 *61:230 0.00301993
37 *61:210 0.00438524
38 *61:204 0.00396119
39 *61:202 0.00350239
40 *61:178 0.00297347
41 *61:176 0.0013243
42 *61:153 0.00212007
43 *61:147 0.00168975
44 *61:117 0.00405213
45 *61:109 0.00455033
46 *61:107 0.00358645
47 *61:93 0.00206361
48 *61:89 0.00390433
49 *61:87 0.00448625
50 *61:61 0.00571027
51 *61:59 0.00568695
52 *61:35 0.00235057
53 *61:33 0.00375857
54 *61:31 0.00375857
55 *61:13 0.0671201
56 *61:11 0.0667033
57 *61:9 0.0100294
58 *61:7 0.0108232
59 *337:s4 *300:7 0
60 *337:s4 *316:15 0
61 *338:s4 *299:15 0.000370992
62 *341:s4 *303:12 2.45306e-05
63 *341:s4 *319:7 0
64 *345:s4 *62:358 0.00072189
65 *345:s4 *300:15 0.00039013
66 *349:s4 *349:s5 0
67 *349:s4 *263:10 0
68 *349:s4 *295:8 0
69 *349:s4 *311:12 0
70 *351:s4 *313:16 0
71 *61:9 *62:11 0.00429472
72 *61:13 *62:13 0
73 *61:33 *305:7 0.000835752
74 *61:59 *343:s5 0.00042298
75 *61:59 *62:49 0
76 *61:61 *62:57 0
77 *61:61 *256:14 0
78 *61:87 *62:71 0
79 *61:87 *256:14 0
80 *61:107 *62:93 0.000562779
81 *61:109 *62:93 0
82 *61:109 *271:18 0
83 *61:117 *271:18 0
84 *61:117 *302:19 0.00112918
85 *61:147 *62:125 0.00239041
86 *61:153 *62:125 0.0019673
87 *61:153 *62:147 0.000815825
88 *61:153 *317:23 1.93765e-05
89 *61:176 *62:147 0.000278181
90 *61:178 *271:18 0.0056435
91 *61:202 *271:18 0.000897758
92 *61:204 *311:14 0
93 *61:204 *311:20 0
94 *61:210 *313:22 0.000369842
95 *61:256 *62:194 0.000700914
96 *61:256 *313:18 0.000492952
97 *61:262 *62:242 2.8439e-05
98 *61:329 *294:13 0.000203795
99 *61:329 *310:13 0.000280018
100 *61:331 *326:17 4.21126e-05
101 *61:365 *62:320 0
102 *61:365 *291:18 0
103 *61:391 *62:320 0
104 *61:391 *62:336 0
105 *61:391 *260:13 0.00497884
106 *61:418 *62:336 0
107 *61:420 *291:18 0.00470417
108 *61:420 *323:16 1.79483e-05
109 *61:424 *62:358 5.99126e-05
110 *61:424 *300:15 0.000237168
111 *339:s3 *339:s4 0.00162699
112 *340:s3 *340:s4 0.00258224
113 *340:s3 *61:117 0.000156989
114 *348:s3 *348:s4 0
115 *348:s3 *61:335 0
116 *350:s3 *350:s4 0
117 *350:s3 *61:262 0.000646537
118 *52:39 *61:59 0.00103119
119 *52:107 *61:89 0
120 *52:107 *61:93 0
121 *52:137 *61:109 0
122 *52:137 *61:117 0
123 *52:163 *61:147 0
124 *52:165 *61:147 0.00188742
125 *52:165 *61:153 0.00117121
126 *52:169 *339:s4 0.000272873
127 *52:169 *61:176 0.000103154
128 *52:200 *61:178 0.00472414
129 *52:200 *61:202 0.000889227
130 *52:230 *61:204 0.00628226
131 *52:264 *61:256 0.000476083
132 *52:272 *61:256 0.000446241
133 *52:300 *61:256 0.00269482
134 *52:332 *61:262 4.84095e-05
135 *52:342 *61:331 0.000156345
136 *52:368 *61:331 0.00361726
137 *52:402 *61:365 0.00286625
138 *52:406 *347:s4 0
139 *52:406 *61:365 0
140 *52:445 *61:420 0.00559762
141 *52:453 *61:420 0.000537229
142 *52:479 *337:s4 0.000102192
143 *52:479 *61:443 0.00295105
*RES
1 io_in[3] *61:7 2.58747 
2 *61:7 *61:9 200.535 
3 *61:9 *61:11 0.5 
4 *61:11 *61:13 172.682 
5 *61:13 *344:s4 3.14552 
6 *61:13 *61:31 0.5 
7 *61:31 *61:33 71.1225 
8 *61:33 *61:35 2 
9 *61:35 *343:s4 2.82 
10 *61:35 *61:59 35.6664 
11 *61:59 *61:61 62.7075 