*SPEF "ieee 1481-1999"
*DESIGN "user_project_wrapper"
*DATE "11:11:11 Fri 11 11, 1111"
*VENDOR "OpenRCX"
*PROGRAM "Parallel Extraction"
*VERSION "1.0"
*DESIGN_FLOW "NAME_SCOPE LOCAL" "PIN_CAP NONE"
*DIVIDER /
*DELIMITER :
*BUS_DELIMITER []
*T_UNIT 1 NS
*C_UNIT 1 PF
*R_UNIT 1 OHM
*L_UNIT 1 HENRY

*NAME_MAP
*1 analog_io[0]
*2 analog_io[10]
*3 analog_io[11]
*4 analog_io[12]
*5 analog_io[13]
*6 analog_io[14]
*7 analog_io[15]
*8 analog_io[16]
*9 analog_io[17]
*10 analog_io[18]
*11 analog_io[19]
*12 analog_io[1]
*13 analog_io[20]
*14 analog_io[21]
*15 analog_io[22]
*16 analog_io[23]
*17 analog_io[24]
*18 analog_io[25]
*19 analog_io[26]
*20 analog_io[27]
*21 analog_io[28]
*22 analog_io[2]
*23 analog_io[3]
*24 analog_io[4]
*25 analog_io[5]
*26 analog_io[6]
*27 analog_io[7]
*28 analog_io[8]
*29 analog_io[9]
*30 io_in[0]
*31 io_in[10]
*32 io_in[11]
*33 io_in[12]
*34 io_in[13]
*35 io_in[14]
*36 io_in[15]
*37 io_in[16]
*38 io_in[17]
*39 io_in[18]
*40 io_in[19]
*41 io_in[1]
*42 io_in[20]
*43 io_in[21]
*44 io_in[22]
*45 io_in[23]
*46 io_in[24]
*47 io_in[25]
*48 io_in[26]
*49 io_in[27]
*50 io_in[28]
*51 io_in[29]
*52 io_in[2]
*53 io_in[30]
*54 io_in[31]
*55 io_in[32]
*56 io_in[33]
*57 io_in[34]
*58 io_in[35]
*59 io_in[36]
*60 io_in[37]
*61 io_in[3]
*62 io_in[4]
*63 io_in[5]
*64 io_in[6]
*65 io_in[7]
*66 io_in[8]
*67 io_in[9]
*68 io_oeb[0]
*69 io_oeb[10]
*70 io_oeb[11]
*71 io_oeb[12]
*72 io_oeb[13]
*73 io_oeb[14]
*74 io_oeb[15]
*75 io_oeb[16]
*76 io_oeb[17]
*77 io_oeb[18]
*78 io_oeb[19]
*79 io_oeb[1]
*80 io_oeb[20]
*81 io_oeb[21]
*82 io_oeb[22]
*83 io_oeb[23]
*84 io_oeb[24]
*85 io_oeb[25]
*86 io_oeb[26]
*87 io_oeb[27]
*88 io_oeb[28]
*89 io_oeb[29]
*90 io_oeb[2]
*91 io_oeb[30]
*92 io_oeb[31]
*93 io_oeb[32]
*94 io_oeb[33]
*95 io_oeb[34]
*96 io_oeb[35]
*97 io_oeb[36]
*98 io_oeb[37]
*99 io_oeb[3]
*100 io_oeb[4]
*101 io_oeb[5]
*102 io_oeb[6]
*103 io_oeb[7]
*104 io_oeb[8]
*105 io_oeb[9]
*106 io_out[0]
*107 io_out[10]
*108 io_out[11]
*109 io_out[12]
*110 io_out[13]
*111 io_out[14]
*112 io_out[15]
*113 io_out[16]
*114 io_out[17]
*115 io_out[18]
*116 io_out[19]
*117 io_out[1]
*118 io_out[20]
*119 io_out[21]
*120 io_out[22]
*121 io_out[23]
*122 io_out[24]
*123 io_out[25]
*124 io_out[26]
*125 io_out[27]
*126 io_out[28]
*127 io_out[29]
*128 io_out[2]
*129 io_out[30]
*130 io_out[31]
*131 io_out[32]
*132 io_out[33]
*133 io_out[34]
*134 io_out[35]
*135 io_out[36]
*136 io_out[37]
*137 io_out[3]
*138 io_out[4]
*139 io_out[5]
*140 io_out[6]
*141 io_out[7]
*142 io_out[8]
*143 io_out[9]
*146 wb_clk_i
*147 wb_rst_i
*148 wbs_ack_o
*149 wbs_adr_i[0]
*150 wbs_adr_i[10]
*151 wbs_adr_i[11]
*152 wbs_adr_i[12]
*153 wbs_adr_i[13]
*154 wbs_adr_i[14]
*155 wbs_adr_i[15]
*156 wbs_adr_i[16]
*157 wbs_adr_i[17]
*158 wbs_adr_i[18]
*159 wbs_adr_i[19]
*160 wbs_adr_i[1]
*161 wbs_adr_i[20]
*162 wbs_adr_i[21]
*163 wbs_adr_i[22]
*164 wbs_adr_i[23]
*165 wbs_adr_i[24]
*166 wbs_adr_i[25]
*167 wbs_adr_i[26]
*168 wbs_adr_i[27]
*169 wbs_adr_i[28]
*170 wbs_adr_i[29]
*171 wbs_adr_i[2]
*172 wbs_adr_i[30]
*173 wbs_adr_i[31]
*174 wbs_adr_i[3]
*175 wbs_adr_i[4]
*176 wbs_adr_i[5]
*177 wbs_adr_i[6]
*178 wbs_adr_i[7]
*179 wbs_adr_i[8]
*180 wbs_adr_i[9]
*181 wbs_cyc_i
*182 wbs_dat_i[0]
*183 wbs_dat_i[10]
*184 wbs_dat_i[11]
*185 wbs_dat_i[12]
*186 wbs_dat_i[13]
*187 wbs_dat_i[14]
*188 wbs_dat_i[15]
*189 wbs_dat_i[16]
*190 wbs_dat_i[17]
*191 wbs_dat_i[18]
*192 wbs_dat_i[19]
*193 wbs_dat_i[1]
*194 wbs_dat_i[20]
*195 wbs_dat_i[21]
*196 wbs_dat_i[22]
*197 wbs_dat_i[23]
*198 wbs_dat_i[24]
*199 wbs_dat_i[25]
*200 wbs_dat_i[26]
*201 wbs_dat_i[27]
*202 wbs_dat_i[28]
*203 wbs_dat_i[29]
*204 wbs_dat_i[2]
*205 wbs_dat_i[30]
*206 wbs_dat_i[31]
*207 wbs_dat_i[3]
*208 wbs_dat_i[4]
*209 wbs_dat_i[5]
*210 wbs_dat_i[6]
*211 wbs_dat_i[7]
*212 wbs_dat_i[8]
*213 wbs_dat_i[9]
*214 wbs_dat_o[0]
*215 wbs_dat_o[10]
*216 wbs_dat_o[11]
*217 wbs_dat_o[12]
*218 wbs_dat_o[13]
*219 wbs_dat_o[14]
*220 wbs_dat_o[15]
*221 wbs_dat_o[16]
*222 wbs_dat_o[17]
*223 wbs_dat_o[18]
*224 wbs_dat_o[19]
*225 wbs_dat_o[1]
*226 wbs_dat_o[20]
*227 wbs_dat_o[21]
*228 wbs_dat_o[22]
*229 wbs_dat_o[23]
*230 wbs_dat_o[24]
*231 wbs_dat_o[25]
*232 wbs_dat_o[26]
*233 wbs_dat_o[27]
*234 wbs_dat_o[28]
*235 wbs_dat_o[29]
*236 wbs_dat_o[2]
*237 wbs_dat_o[30]
*238 wbs_dat_o[31]
*239 wbs_dat_o[3]
*240 wbs_dat_o[4]
*241 wbs_dat_o[5]
*242 wbs_dat_o[6]
*243 wbs_dat_o[7]
*244 wbs_dat_o[8]
*245 wbs_dat_o[9]
*246 wbs_sel_i[0]
*247 wbs_sel_i[1]
*248 wbs_sel_i[2]
*249 wbs_sel_i[3]
*250 wbs_stb_i
*251 wbs_we_i
*252 x1\[0\]
*253 x1\[10\]
*254 x1\[11\]
*255 x1\[12\]
*256 x1\[13\]
*257 x1\[14\]
*258 x1\[15\]
*259 x1\[1\]
*260 x1\[2\]
*261 x1\[3\]
*262 x1\[4\]
*263 x1\[5\]
*264 x1\[6\]
*265 x1\[7\]
*266 x1\[8\]
*267 x1\[9\]
*268 x2\[0\]
*269 x2\[10\]
*270 x2\[11\]
*271 x2\[12\]
*272 x2\[13\]
*273 x2\[14\]
*274 x2\[15\]
*275 x2\[1\]
*276 x2\[2\]
*277 x2\[3\]
*278 x2\[4\]
*279 x2\[5\]
*280 x2\[6\]
*281 x2\[7\]
*282 x2\[8\]
*283 x2\[9\]
*284 x3\[0\]
*285 x3\[10\]
*286 x3\[11\]
*287 x3\[12\]
*288 x3\[13\]
*289 x3\[14\]
*290 x3\[15\]
*291 x3\[1\]
*292 x3\[2\]
*293 x3\[3\]
*294 x3\[4\]
*295 x3\[5\]
*296 x3\[6\]
*297 x3\[7\]
*298 x3\[8\]
*299 x3\[9\]
*300 x4\[0\]
*301 x4\[10\]
*302 x4\[11\]
*303 x4\[12\]
*304 x4\[13\]
*305 x4\[14\]
*306 x4\[15\]
*307 x4\[1\]
*308 x4\[2\]
*309 x4\[3\]
*310 x4\[4\]
*311 x4\[5\]
*312 x4\[6\]
*313 x4\[7\]
*314 x4\[8\]
*315 x4\[9\]
*316 x5\[0\]
*317 x5\[10\]
*318 x5\[11\]
*319 x5\[12\]
*320 x5\[13\]
*321 x5\[14\]
*322 x5\[15\]
*323 x5\[1\]
*324 x5\[2\]
*325 x5\[3\]
*326 x5\[4\]
*327 x5\[5\]
*328 x5\[6\]
*329 x5\[7\]
*330 x5\[8\]
*331 x5\[9\]
*332 mprj1
*333 mprj2
*334 mprj3
*335 mprj4
*336 mprj5
*337 ro1
*338 ro10
*339 ro11
*340 ro12
*341 ro13
*342 ro14
*343 ro15
*344 ro16
*345 ro2
*346 ro3
*347 ro4
*348 ro5
*349 ro6
*350 ro7
*351 ro8
*352 ro9

*PORTS
analog_io[0] I
analog_io[10] I
analog_io[11] I
analog_io[12] I
analog_io[13] I
analog_io[14] I
analog_io[15] I
analog_io[16] I
analog_io[17] I
analog_io[18] I
analog_io[19] I
analog_io[1] I
analog_io[20] I
analog_io[21] I
analog_io[22] I
analog_io[23] I
analog_io[24] I
analog_io[25] I
analog_io[26] I
analog_io[27] I
analog_io[28] I
analog_io[2] I
analog_io[3] I
analog_io[4] I
analog_io[5] I
analog_io[6] I
analog_io[7] I
analog_io[8] I
analog_io[9] I
io_in[0] I
io_in[10] I
io_in[11] I
io_in[12] I
io_in[13] I
io_in[14] I
io_in[15] I
io_in[16] I
io_in[17] I
io_in[18] I
io_in[19] I
io_in[1] I
io_in[20] I
io_in[21] I
io_in[22] I
io_in[23] I
io_in[24] I
io_in[25] I
io_in[26] I
io_in[27] I
io_in[28] I
io_in[29] I
io_in[2] I
io_in[30] I
io_in[31] I
io_in[32] I
io_in[33] I
io_in[34] I
io_in[35] I
io_in[36] I
io_in[37] I
io_in[3] I
io_in[4] I
io_in[5] I
io_in[6] I
io_in[7] I
io_in[8] I
io_in[9] I
io_oeb[0] O
io_oeb[10] O
io_oeb[11] O
io_oeb[12] O
io_oeb[13] O
io_oeb[14] O
io_oeb[15] O
io_oeb[16] O
io_oeb[17] O
io_oeb[18] O
io_oeb[19] O
io_oeb[1] O
io_oeb[20] O
io_oeb[21] O
io_oeb[22] O
io_oeb[23] O
io_oeb[24] O
io_oeb[25] O
io_oeb[26] O
io_oeb[27] O
io_oeb[28] O
io_oeb[29] O
io_oeb[2] O
io_oeb[30] O
io_oeb[31] O
io_oeb[32] O
io_oeb[33] O
io_oeb[34] O
io_oeb[35] O
io_oeb[36] O
io_oeb[37] O
io_oeb[3] O
io_oeb[4] O
io_oeb[5] O
io_oeb[6] O
io_oeb[7] O
io_oeb[8] O
io_oeb[9] O
io_out[0] O
io_out[10] O
io_out[11] O
io_out[12] O
io_out[13] O
io_out[14] O
io_out[15] O
io_out[16] O
io_out[17] O
io_out[18] O
io_out[19] O
io_out[1] O
io_out[20] O
io_out[21] O
io_out[22] O
io_out[23] O
io_out[24] O
io_out[25] O
io_out[26] O
io_out[27] O
io_out[28] O
io_out[29] O
io_out[2] O
io_out[30] O
io_out[31] O
io_out[32] O
io_out[33] O
io_out[34] O
io_out[35] O
io_out[36] O
io_out[37] O
io_out[3] O
io_out[4] O
io_out[5] O
io_out[6] O
io_out[7] O
io_out[8] O
io_out[9] O
wb_clk_i I
wb_rst_i I
wbs_ack_o O
wbs_adr_i[0] I
wbs_adr_i[10] I
wbs_adr_i[11] I
wbs_adr_i[12] I
wbs_adr_i[13] I
wbs_adr_i[14] I
wbs_adr_i[15] I
wbs_adr_i[16] I
wbs_adr_i[17] I
wbs_adr_i[18] I
wbs_adr_i[19] I
wbs_adr_i[1] I
wbs_adr_i[20] I
wbs_adr_i[21] I
wbs_adr_i[22] I
wbs_adr_i[23] I
wbs_adr_i[24] I
wbs_adr_i[25] I
wbs_adr_i[26] I
wbs_adr_i[27] I
wbs_adr_i[28] I
wbs_adr_i[29] I
wbs_adr_i[2] I
wbs_adr_i[30] I
wbs_adr_i[31] I
wbs_adr_i[3] I
wbs_adr_i[4] I
wbs_adr_i[5] I
wbs_adr_i[6] I
wbs_adr_i[7] I
wbs_adr_i[8] I
wbs_adr_i[9] I
wbs_cyc_i I
wbs_dat_i[0] I
wbs_dat_i[10] I
wbs_dat_i[11] I
wbs_dat_i[12] I
wbs_dat_i[13] I
wbs_dat_i[14] I
wbs_dat_i[15] I
wbs_dat_i[16] I
wbs_dat_i[17] I
wbs_dat_i[18] I
wbs_dat_i[19] I
wbs_dat_i[1] I
wbs_dat_i[20] I
wbs_dat_i[21] I
wbs_dat_i[22] I
wbs_dat_i[23] I
wbs_dat_i[24] I
wbs_dat_i[25] I
wbs_dat_i[26] I
wbs_dat_i[27] I
wbs_dat_i[28] I
wbs_dat_i[29] I
wbs_dat_i[2] I
wbs_dat_i[30] I
wbs_dat_i[31] I
wbs_dat_i[3] I
wbs_dat_i[4] I
wbs_dat_i[5] I
wbs_dat_i[6] I
wbs_dat_i[7] I
wbs_dat_i[8] I
wbs_dat_i[9] I
wbs_dat_o[0] O
wbs_dat_o[10] O
wbs_dat_o[11] O
wbs_dat_o[12] O
wbs_dat_o[13] O
wbs_dat_o[14] O
wbs_dat_o[15] O
wbs_dat_o[16] O
wbs_dat_o[17] O
wbs_dat_o[18] O
wbs_dat_o[19] O
wbs_dat_o[1] O
wbs_dat_o[20] O
wbs_dat_o[21] O
wbs_dat_o[22] O
wbs_dat_o[23] O
wbs_dat_o[24] O
wbs_dat_o[25] O
wbs_dat_o[26] O
wbs_dat_o[27] O
wbs_dat_o[28] O
wbs_dat_o[29] O
wbs_dat_o[2] O
wbs_dat_o[30] O
wbs_dat_o[31] O
wbs_dat_o[3] O
wbs_dat_o[4] O
wbs_dat_o[5] O
wbs_dat_o[6] O
wbs_dat_o[7] O
wbs_dat_o[8] O
wbs_dat_o[9] O
wbs_sel_i[0] I
wbs_sel_i[1] I
wbs_sel_i[2] I
wbs_sel_i[3] I
wbs_stb_i I
wbs_we_i I

*D_NET *30 0.457557
*CONN
*P io_in[0] I
*I *344:s1 I *D sky130_osu_ring_oscillator_mpr2ya_8_b0r2
*I *350:s1 I *D sky130_osu_ring_oscillator_mpr2xa_8_b0r1
*I *347:s1 I *D sky130_osu_ring_oscillator_mpr2ct_8_b0r1
*I *345:s1 I *D sky130_osu_ring_oscillator_mpr2at_8_b0r1
*I *337:s1 I *D sky130_osu_ring_oscillator_mpr2aa_8_b0r1
*I *346:s1 I *D sky130_osu_ring_oscillator_mpr2ca_8_b0r1
*I *348:s1 I *D sky130_osu_ring_oscillator_mpr2ea_8_b0r1
*I *349:s1 I *D sky130_osu_ring_oscillator_mpr2et_8_b0r1
*I *351:s1 I *D sky130_osu_ring_oscillator_mpr2ya_8_b0r1
*I *352:s1 I *D sky130_osu_ring_oscillator_mpr2aa_8_b0r2
*I *338:s1 I *D sky130_osu_ring_oscillator_mpr2at_8_b0r2
*I *339:s1 I *D sky130_osu_ring_oscillator_mpr2ca_8_b0r2
*I *340:s1 I *D sky130_osu_ring_oscillator_mpr2ct_8_b0r2
*I *341:s1 I *D sky130_osu_ring_oscillator_mpr2ea_8_b0r2
*I *342:s1 I *D sky130_osu_ring_oscillator_mpr2et_8_b0r2
*I *343:s1 I *D sky130_osu_ring_oscillator_mpr2xa_8_b0r2
*CAP
1 io_in[0] 0.0739818
2 *344:s1 0
3 *350:s1 0.000412312
4 *347:s1 0.000160322
5 *345:s1 0.000537306
6 *337:s1 0.000662508
7 *346:s1 0.000226332
8 *348:s1 0.000422886
9 *349:s1 0
10 *351:s1 0.000346518
11 *352:s1 0.00063108
12 *338:s1 0.00197955
13 *339:s1 0.000250207
14 *340:s1 0.000151386
15 *341:s1 0
16 *342:s1 0
17 *343:s1 0.000451858
18 *30:308 0.000692338
19 *30:248 0.00355286
20 *30:246 0.00289035
21 *30:244 0.00101017
22 *30:236 0.00343464
23 *30:222 0.00614157
24 *30:220 0.00338068
25 *30:216 0.00529371
26 *30:201 0.00786866
27 *30:199 0.00337314
28 *30:186 0.00059194
29 *30:178 0.00447881
30 *30:176 0.00335711
31 *30:172 0.000516098
32 *30:170 0.00310263
33 *30:159 0.00681936
34 *30:149 0.00710452
35 *30:147 0.00364044
36 *30:143 0.000845274
37 *30:125 0.00447894
38 *30:123 0.00280746
39 *30:110 0.00189018
40 *30:104 0.00254972
41 *30:98 0.0042267
42 *30:78 0.00442156
43 *30:72 0.00320912
44 *30:70 0.00345437
45 *30:61 0.000518373
46 *30:53 0.00449496
47 *30:46 0.000564119
48 *30:42 0.00516782
49 *30:40 0.00197929
50 *30:23 0.00342607
51 *30:21 0.00342978
52 *30:13 0.00376767
53 *30:9 0.0422693
54 *30:7 0.0398032
55 *30:5 0.0739818
56 *338:s1 *267:11 0
57 *343:s1 *343:start 4.33544e-05
58 *346:s1 *346:start 2.92412e-05
59 *351:s1 *351:start 1.57659e-06
60 *30:9 *62:33 0.00133262
61 *30:13 *41:13 0.00520441
62 *30:13 *41:21 0.00186651
63 *30:21 *41:21 0.000508823
64 *30:23 *41:23 0.00725929
65 *30:40 *41:23 0.000329903
66 *30:42 *41:23 0.000208388
67 *30:42 *41:51 0.00118044
68 *30:42 *41:53 0.0043838
69 *30:42 *52:75 0.00390845
70 *30:46 *342:start 9.65021e-05
71 *30:53 *41:53 0.000800138
72 *30:53 *41:80 0.00763753
73 *30:53 *52:75 0.000440605
74 *30:61 *341:start 2.04034e-05
75 *30:70 *41:80 0.00074033
76 *30:70 *41:110 0.000775224
77 *30:72 *41:110 0.00581831
78 *30:110 *41:145 0.00422817
79 *30:147 *338:start 1.24376e-05
80 *30:149 *41:175 0.000924081
81 *30:149 *41:199 0.00725897
82 *30:159 *41:199 0.00107725
83 *30:159 *41:227 0.0078008
84 *30:170 *41:227 0.000587135
85 *30:170 *41:255 0.00773592
86 *30:176 *350:start 7.78506e-06
87 *30:178 *41:255 0.000293873
88 *30:178 *41:274 0.00323469
89 *30:178 *41:278 0.00199781
90 *30:186 *349:start 9.65021e-05
91 *30:199 *41:278 0.00088368
92 *30:199 *41:298 0
93 *30:199 *41:305 0.00049768
94 *30:201 *41:305 0.00235665
95 *30:201 *41:311 0.00265629
96 *30:216 *41:311 0.000285629
97 *30:222 *41:387 0.00750555
98 *30:236 *41:387 0.00117068
99 *30:236 *41:410 0.00668795
100 *30:244 *345:start 2.41131e-05
101 *30:244 *41:410 0.000200994
102 *30:244 *41:416 0.000130186
103 *30:248 *41:416 0.000190858
104 *30:248 *41:436 0.00237703
*RES
1 io_in[0] *30:5 254.236 
2 *30:5 *30:7 8 
3 *30:7 *30:9 903.039 
4 *30:9 *30:13 21.0219 
5 *30:13 *30:21 10.2699 
6 *30:21 *30:23 95.9279 
7 *30:23 *343:s1 47.482 
8 *30:23 *30:40 5.34429 
9 *30:40 *30:42 105.736 
10 *30:42 *30:46 27.4286 
11 *30:46 *342:s1 23 
12 *30:42 *30:53 107.196 
13 *30:53 *30:61 40.818 
14 *30:61 *341:s1 15 
15 *30:53 *30:70 38.7254 
16 *30:70 *30:72 74.82 
17 *30:72 *30:78 18.8896 
18 *30:78 *340:s1 18.1693 
19 *30:78 *30:98 76.2079 
20 *30:98 *30:104 18.8037 
21 *30:104 *30:110 46.1201 
22 *30:110 *339:s1 9.0024 
23 *30:110 *30:123 8 
24 *30:123 *30:125 64.3179 
25 *30:125 *338:s1 39.1966 
26 *338:s1 *30:143 21.6959 
27 *30:143 *30:147 26.5793 
28 *30:147 *30:149 105.084 
29 *30:149 *352:s1 28.8889 
30 *30:149 *30:159 114.239 
31 *30:159 *351:s1 45.5918 
32 *30:159 *30:170 106.844 
33 *30:170 *30:172 15 
34 *30:172 *30:176 16.5743 
35 *30:176 *30:178 111.07 
36 *30:178 *30:186 28.2727 
37 *30:186 *349:s1 23 
38 *30:178 *30:199 33.8897 
39 *30:199 *30:201 91.5261 
40 *30:201 *348:s1 47.3939 
41 *30:201 *30:216 107.372 
42 *30:216 *30:220 9.59071 
43 *30:220 *30:222 99.6046 
44 *30:222 *346:s1 19.7798 
45 *30:222 *30:236 101.034 
46 *30:236 *30:244 27.8532 
47 *30:244 *30:246 15 
48 *30:246 *30:248 90.2936 
49 *30:248 *337:s1 28.8889 
50 *30:244 *345:s1 34.8848 
51 *30:216 *347:s1 18.7648 
52 *30:172 *350:s1 38.7725 
53 *30:13 *30:308 36.0549 
54 *30:308 *344:s1 15 
*END

*D_NET *41 0.488199
*CONN
*P io_in[1] I
*I *344:s2 I *D sky130_osu_ring_oscillator_mpr2ya_8_b0r2
*I *337:s2 I *D sky130_osu_ring_oscillator_mpr2aa_8_b0r1
*I *345:s2 I *D sky130_osu_ring_oscillator_mpr2at_8_b0r1
*I *346:s2 I *D sky130_osu_ring_oscillator_mpr2ca_8_b0r1
*I *347:s2 I *D sky130_osu_ring_oscillator_mpr2ct_8_b0r1
*I *348:s2 I *D sky130_osu_ring_oscillator_mpr2ea_8_b0r1
*I *349:s2 I *D sky130_osu_ring_oscillator_mpr2et_8_b0r1
*I *350:s2 I *D sky130_osu_ring_oscillator_mpr2xa_8_b0r1
*I *351:s2 I *D sky130_osu_ring_oscillator_mpr2ya_8_b0r1
*I *352:s2 I *D sky130_osu_ring_oscillator_mpr2aa_8_b0r2
*I *338:s2 I *D sky130_osu_ring_oscillator_mpr2at_8_b0r2
*I *339:s2 I *D sky130_osu_ring_oscillator_mpr2ca_8_b0r2
*I *340:s2 I *D sky130_osu_ring_oscillator_mpr2ct_8_b0r2
*I *341:s2 I *D sky130_osu_ring_oscillator_mpr2ea_8_b0r2
*I *342:s2 I *D sky130_osu_ring_oscillator_mpr2et_8_b0r2
*I *343:s2 I *D sky130_osu_ring_oscillator_mpr2xa_8_b0r2
*CAP
1 io_in[1] 0.0654447
2 *344:s2 0.000694403
3 *337:s2 0.00197867
4 *345:s2 0.00228422
5 *346:s2 0.0019969
6 *347:s2 0.00275822
7 *348:s2 0.00035022
8 *349:s2 0
9 *350:s2 0.00146707
10 *351:s2 0.0021021
11 *352:s2 0.00217938
12 *338:s2 0.00245319
13 *339:s2 0.000457531
14 *340:s2 0
15 *341:s2 0.00217535
16 *342:s2 0
17 *343:s2 0.00192541
18 *41:436 0.00509995
19 *41:416 0.00573692
20 *41:410 0.00311856
21 *41:387 0.00805902
22 *41:385 0.00327499
23 *41:383 0.00238603
24 *41:345 0.00191714
25 *41:335 0.00426292
26 *41:315 0.00474449
27 *41:311 0.00281894
28 *41:305 0.00302322
29 *41:298 0.00244289
30 *41:278 0.00540411
31 *41:274 0.00344354
32 *41:255 0.00699263
33 *41:250 0
34 *41:227 0.00844456
35 *41:199 0.00852513
36 *41:175 0.00820992
37 *41:173 0.00387271
38 *41:167 0.00355918
39 *41:147 0.00273479
40 *41:145 0.00207451
41 *41:135 0.00492278
42 *41:128 0.00189873
43 *41:110 0.0083456
44 *41:82 0.00582241
45 *41:80 0.00300243
46 *41:73 0.00176598
47 *41:53 0.00655756
48 *41:51 0.00327964
49 *41:23 0.00640715
50 *41:21 0.00419702
51 *41:13 0.00929296
52 *41:9 0.0376029
53 *41:7 0.0301617
54 *41:5 0.0654447
55 *343:s2 *52:73 0.000525181
56 *347:s2 *277:10 0
57 *41:13 *344:s3 0.00185138
58 *41:13 *52:13 0.00866756
59 *41:73 *52:79 0.00324489
60 *41:298 *278:7 0
61 *30:13 *41:13 0.00520441
62 *30:13 *41:21 0.00186651
63 *30:21 *41:21 0.000508823
64 *30:23 *41:23 0.00725929
65 *30:40 *41:23 0.000329903
66 *30:42 *41:23 0.000208388
67 *30:42 *41:51 0.00118044
68 *30:42 *41:53 0.0043838
69 *30:53 *41:53 0.000800138
70 *30:53 *41:80 0.00763753
71 *30:70 *41:80 0.00074033
72 *30:70 *41:110 0.000775224
73 *30:72 *41:110 0.00581831
74 *30:110 *41:145 0.00422817
75 *30:149 *41:175 0.000924081
76 *30:149 *41:199 0.00725897
77 *30:159 *41:199 0.00107725
78 *30:159 *41:227 0.0078008
79 *30:170 *41:227 0.000587135
80 *30:170 *41:255 0.00773592
81 *30:178 *41:255 0.000293873
82 *30:178 *41:274 0.00323469
83 *30:178 *41:278 0.00199781
84 *30:199 *41:278 0.00088368
85 *30:199 *41:298 0
86 *30:199 *41:305 0.00049768
87 *30:201 *41:305 0.00235665
88 *30:201 *41:311 0.00265629
89 *30:216 *41:311 0.000285629
90 *30:222 *41:387 0.00750555
91 *30:236 *41:387 0.00117068
92 *30:236 *41:410 0.00668795
93 *30:244 *41:410 0.000200994
94 *30:244 *41:416 0.000130186
95 *30:248 *41:416 0.000190858
96 *30:248 *41:436 0.00237703
*RES
1 io_in[1] *41:5 224.612 
2 *41:5 *41:7 8 
3 *41:7 *41:9 698.092 
4 *41:9 *41:13 47.2971 
5 *41:13 *41:21 13.6597 
6 *41:21 *41:23 104.379 
7 *41:23 *343:s2 48.5834 
8 *41:23 *41:51 44.1007 
9 *41:51 *41:53 65.7471 
10 *41:53 *41:73 48.6623 
11 *41:73 *342:s2 15 
12 *41:53 *41:80 106.492 
13 *41:80 *41:82 1.09786 
14 *41:82 *341:s2 47.9494 
15 *41:82 *41:110 114.239 
16 *41:110 *41:128 49.9512 
17 *41:128 *340:s2 23 
18 *41:110 *41:135 64.2764 
19 *41:135 *41:145 49.9752 
20 *41:145 *41:147 8 
21 *41:147 *339:s2 21.3734 
22 *41:147 *41:167 52.2621 
23 *41:167 *41:173 20.0917 
24 *41:173 *41:175 62.1221 
25 *41:175 *338:s2 48.2705 
26 *41:175 *41:199 107.196 
27 *41:199 *352:s2 47.3539 
28 *41:199 *41:227 107.901 
29 *41:227 *351:s2 45.9246 
30 *351:s2 *41:250 0.225556 
31 *41:227 *41:255 106.492 
32 *41:255 *350:s2 36.7694 
33 *41:255 *41:274 78.59 
34 *41:274 *41:278 37.12 
35 *41:278 *41:298 49.9496 
36 *41:298 *349:s2 15 
37 *41:278 *41:305 63.8414 
38 *41:305 *41:311 46.4871 
39 *41:311 *41:315 13.5515 
40 *41:315 *348:s2 20.7219 
41 *41:315 *41:335 62.4743 
42 *41:335 *41:345 47.2995 
43 *41:345 *347:s2 23.0112 
44 *347:s2 *41:383 42.1162 
45 *41:383 *41:385 8 
46 *41:385 *41:387 111.422 
47 *41:387 *346:s2 49.2232 
48 *41:387 *41:410 94.5193 
49 *41:410 *41:416 8.20286 
50 *41:416 *345:s2 27.1461 
51 *41:416 *41:436 95.2236 
52 *41:436 *337:s2 25.7056 
53 *41:13 *344:s2 36.699 
*END

*D_NET *52 0.472847
*CONN
*P io_in[2] I
*I *346:s3 I *D sky130_osu_ring_oscillator_mpr2ca_8_b0r1
*I *337:s3 I *D sky130_osu_ring_oscillator_mpr2aa_8_b0r1
*I *345:s3 I *D sky130_osu_ring_oscillator_mpr2at_8_b0r1
*I *347:s3 I *D sky130_osu_ring_oscillator_mpr2ct_8_b0r1
*I *348:s3 I *D sky130_osu_ring_oscillator_mpr2ea_8_b0r1
*I *349:s3 I *D sky130_osu_ring_oscillator_mpr2et_8_b0r1
*I *350:s3 I *D sky130_osu_ring_oscillator_mpr2xa_8_b0r1
*I *351:s3 I *D sky130_osu_ring_oscillator_mpr2ya_8_b0r1
*I *352:s3 I *D sky130_osu_ring_oscillator_mpr2aa_8_b0r2
*I *338:s3 I *D sky130_osu_ring_oscillator_mpr2at_8_b0r2
*I *339:s3 I *D sky130_osu_ring_oscillator_mpr2ca_8_b0r2
*I *340:s3 I *D sky130_osu_ring_oscillator_mpr2ct_8_b0r2
*I *341:s3 I *D sky130_osu_ring_oscillator_mpr2ea_8_b0r2
*I *342:s3 I *D sky130_osu_ring_oscillator_mpr2et_8_b0r2
*I *343:s3 I *D sky130_osu_ring_oscillator_mpr2xa_8_b0r2
*I *344:s3 I *D sky130_osu_ring_oscillator_mpr2ya_8_b0r2
*CAP
1 io_in[2] 0.0561648
2 *346:s3 0.000692246
3 *337:s3 0.00261908
4 *345:s3 0.00227495
5 *347:s3 0.000758422
6 *348:s3 0.00264141
7 *349:s3 7.00143e-05
8 *350:s3 0.00232816
9 *351:s3 0.00190804
10 *352:s3 0.000103364
11 *338:s3 0.00260799
12 *339:s3 0
13 *340:s3 0.000117162
14 *341:s3 0.00244631
15 *342:s3 0.000660214
16 *343:s3 0.000675267
17 *344:s3 0.00228035
18 *52:475 0.00565169
19 *52:473 0.00303261
20 *52:449 0.00344898
21 *52:437 0.00403398
22 *52:435 0.00542558
23 *52:425 0.00378478
24 *52:421 0.00389214
25 *52:419 0.00336525
26 *52:398 0.00269811
27 *52:394 0.00556786
28 *52:392 0.00413969
29 *52:362 0.00315292
30 *52:360 0.00333058
31 *52:350 0.00211569
32 *52:334 0.00595055
33 *52:326 0.00503957
34 *52:324 0.00540251
35 *52:298 0.00326539
36 *52:296 0.00481508
37 *52:268 0.0107864
38 *52:258 0.0026351
39 *52:240 0.00693078
40 *52:234 0.00507813
41 *52:232 0.00474238
42 *52:208 0.0030463
43 *52:204 0.00319483
44 *52:202 0.00380782
45 *52:185 0.00240028
46 *52:169 0.0047815
47 *52:165 0.00280809
48 *52:163 0.00219158
49 *52:156 0
50 *52:145 0.00278677
51 *52:137 0.00714722
52 *52:135 0.00400962
53 *52:109 0.00269173
54 *52:107 0.00306805
55 *52:105 0.00461051
56 *52:79 0.00468101
57 *52:75 0.00563683
58 *52:73 0.00555096
59 *52:45 0.00523108
60 *52:39 0.00534282
61 *52:37 0.00317947
62 *52:13 0.0163055
63 *52:11 0.0140252
64 *52:9 0.0213111
65 *52:7 0.0213111
66 *52:5 0.0561648
67 *338:s3 *314:9 0
68 *341:s3 *61:115 0.000532509
69 *345:s3 *300:15 0.000338957
70 *346:s3 *292:11 0
71 *350:s3 *61:292 0
72 *350:s3 *62:262 0
73 *351:s3 *351:s4 0
74 *351:s3 *61:236 0.000461302
75 *351:s3 *296:10 0.000903824
76 *52:39 *62:33 0.00689123
77 *52:39 *62:51 0.000678524
78 *52:39 *62:53 0
79 *52:45 *61:59 0
80 *52:105 *61:107 0.00113646
81 *52:107 *61:109 0.00825457
82 *52:107 *287:14 0
83 *52:135 *61:115 1.36509e-05
84 *52:137 *61:147 0
85 *52:137 *62:101 0.00270953
86 *52:137 *62:129 0
87 *52:163 *61:147 0
88 *52:163 *62:129 0
89 *52:165 *61:147 0
90 *52:165 *62:129 0.00205758
91 *52:169 *61:147 0
92 *52:169 *62:129 0.00238711
93 *52:169 *62:149 0.00104219
94 *52:169 *317:13 2.31209e-05
95 *52:185 *339:s4 0.00113323
96 *52:185 *62:149 7.12426e-05
97 *52:202 *335:data_in[9] 0.000360946
98 *52:204 *61:174 0.00615538
99 *52:204 *61:192 0.000547276
100 *52:204 *61:194 0
101 *52:204 *271:18 0.000847261
102 *52:208 *311:22 4.15523e-05
103 *52:208 *312:25 0.00016296
104 *52:208 *314:9 0
105 *52:234 *62:201 0
106 *52:234 *311:14 0
107 *52:234 *311:18 0
108 *52:258 *62:201 0
109 *52:268 *351:s5 0
110 *52:268 *61:236 0.00262387
111 *52:268 *62:201 0
112 *52:268 *62:211 0
113 *52:268 *62:233 0
114 *52:296 *350:s5 0
115 *52:296 *62:233 0
116 *52:296 *62:264 0
117 *52:326 *62:286 0.000417875
118 *52:326 *276:13 0.000941231
119 *52:326 *277:18 0.000888396
120 *52:326 *324:10 0
121 *52:334 *61:337 0.000169194
122 *52:334 *278:11 0
123 *52:334 *291:25 4.63681e-05
124 *52:334 *294:11 0.000312873
125 *52:350 *294:7 0
126 *52:350 *294:11 0.00173834
127 *52:360 *61:337 0.00244618
128 *52:360 *61:347 0.000791533
129 *52:360 *326:13 3.01446e-05
130 *52:392 *62:306 0.000467775
131 *52:392 *62:308 0
132 *52:392 *291:21 0
133 *52:394 *61:392 0.00348188
134 *52:394 *62:308 0
135 *52:394 *62:326 0.000239832
136 *52:394 *291:21 0
137 *52:394 *325:15 5.10626e-06
138 *52:398 *347:s4 0
139 *52:398 *61:396 0
140 *52:398 *260:17 0
141 *52:425 *292:11 0
142 *52:435 *62:326 0
143 *52:435 *62:342 0
144 *52:435 *276:11 0
145 *52:435 *291:21 0
146 *52:437 *61:451 0.000318311
147 *52:437 *62:342 0
148 *52:437 *62:344 0.00618849
149 *52:437 *291:21 0.000370595
150 *52:449 *345:s5 2.52934e-05
151 *52:449 *61:451 0.000474841
152 *52:449 *62:344 6.00431e-05
153 *52:449 *300:15 0.000159155
154 *52:449 *323:19 2.29099e-05
155 *52:475 *337:s4 9.5053e-05
156 *52:475 *61:474 0.00322582
157 *343:s2 *52:73 0.000525181
158 *30:42 *52:75 0.00390845
159 *30:53 *52:75 0.000440605
160 *41:13 *344:s3 0.00185138
161 *41:13 *52:13 0.00866756
162 *41:73 *52:79 0.00324489
*RES
1 io_in[2] *52:5 197.564 
2 *52:5 *52:7 8 
3 *52:7 *52:9 493.145 
4 *52:9 *52:11 8 
5 *52:11 *52:13 56.728 
6 *52:13 *344:s3 44.8463 
7 *52:13 *52:37 8 
8 *52:37 *52:39 104.379 
9 *52:39 *52:45 23.0971 
10 *52:45 *343:s3 28.4702 
11 *52:45 *52:73 27.9656 
12 *52:73 *52:75 105.788 
13 *52:75 *52:79 18.2741 
14 *52:79 *342:s3 36.2372 
15 *52:79 *52:105 13.9808 
16 *52:105 *52:107 107.901 
17 *52:107 *52:109 8 
18 *52:109 *341:s3 41.0097 
19 *52:109 *52:135 8.8288 
20 *52:135 *52:137 112.126 
21 *52:137 *52:145 35.2965 
22 *52:145 *340:s3 17.8068 
23 *340:s3 *52:156 0.225556 
24 *52:137 *52:163 16.3021 
25 *52:163 *52:165 50.17 
26 *52:165 *52:169 45.095 
27 *52:169 *52:185 43.1957 
28 *52:185 *339:s3 8 
29 *52:169 *52:202 33.744 
30 *52:202 *52:204 99.4493 
31 *52:204 *52:208 9.77333 
32 *52:208 *338:s3 45.5371 
33 *52:208 *52:232 8 
34 *52:232 *52:234 107.901 
35 *52:234 *52:240 16.9147 
36 *52:240 *52:258 43.7133 
37 *52:258 *352:s3 10.1854 
38 *52:240 *52:268 100.858 
39 *52:268 *351:s3 46.5985 
40 *52:268 *52:296 109.309 
41 *52:296 *52:298 8 
42 *52:298 *350:s3 37.7586 
43 *52:298 *52:324 11.2331 
44 *52:324 *52:326 112.831 
45 *52:326 *52:334 22.4016 
46 *52:334 *52:350 44.1158 
47 *52:350 *349:s3 9.48107 
48 *52:334 *52:360 102.971 
49 *52:360 *52:362 8 
50 *52:362 *348:s3 41.0536 
51 *52:362 *52:392 16.3511 
52 *52:392 *52:394 101.231 
53 *52:394 *52:398 14.5819 
54 *52:398 *347:s3 32.908 
55 *52:398 *52:419 8 
56 *52:419 *52:421 77.72 
57 *52:421 *52:425 11.2271 
58 *52:425 *52:435 35.0609 
59 *52:435 *52:437 100.195 
60 *52:437 *52:449 32.5116 
61 *52:449 *345:s3 41.4439 
62 *52:449 *52:473 8 
63 *52:473 *52:475 93.815 
64 *52:475 *337:s3 48.5248 
65 *52:425 *346:s3 30.1887 
*END

*D_NET *61 0.405501
*CONN
*P io_in[3] I
*I *340:s4 I *D sky130_osu_ring_oscillator_mpr2ct_8_b0r2
*I *337:s4 I *D sky130_osu_ring_oscillator_mpr2aa_8_b0r1
*I *345:s4 I *D sky130_osu_ring_oscillator_mpr2at_8_b0r1
*I *346:s4 I *D sky130_osu_ring_oscillator_mpr2ca_8_b0r1
*I *347:s4 I *D sky130_osu_ring_oscillator_mpr2ct_8_b0r1
*I *348:s4 I *D sky130_osu_ring_oscillator_mpr2ea_8_b0r1
*I *349:s4 I *D sky130_osu_ring_oscillator_mpr2et_8_b0r1
*I *350:s4 I *D sky130_osu_ring_oscillator_mpr2xa_8_b0r1
*I *351:s4 I *D sky130_osu_ring_oscillator_mpr2ya_8_b0r1
*I *352:s4 I *D sky130_osu_ring_oscillator_mpr2aa_8_b0r2
*I *338:s4 I *D sky130_osu_ring_oscillator_mpr2at_8_b0r2
*I *339:s4 I *D sky130_osu_ring_oscillator_mpr2ca_8_b0r2
*I *341:s4 I *D sky130_osu_ring_oscillator_mpr2ea_8_b0r2
*I *342:s4 I *D sky130_osu_ring_oscillator_mpr2et_8_b0r2
*I *343:s4 I *D sky130_osu_ring_oscillator_mpr2xa_8_b0r2
*I *344:s4 I *D sky130_osu_ring_oscillator_mpr2ya_8_b0r2
*CAP
1 io_in[3] 0.000922517
2 *340:s4 0.000392839
3 *337:s4 0.00127614
4 *345:s4 0.00111514
5 *346:s4 0.00162391
6 *347:s4 0.00198222
7 *348:s4 0.000305077
8 *349:s4 0.00229985
9 *350:s4 0.000169652
10 *351:s4 0.000638998
11 *352:s4 0.000361761
12 *338:s4 0.00111111
13 *339:s4 0.00167098
14 *341:s4 0.000777774
15 *342:s4 0.00192826
16 *343:s4 0.000177002
17 *344:s4 0.000456597
18 *61:474 0.00396258
19 *61:472 0.00268644
20 *61:455 0.00144498
21 *61:451 0.00206394
22 *61:449 0.00239447
23 *61:422 0.00548993
24 *61:420 0.00320564
25 *61:396 0.00224375
26 *61:392 0.00179217
27 *61:390 0.00280088
28 *61:384 0.00437744
29 *61:382 0.00361105
30 *61:355 0.0014352
31 *61:347 0.00165789
32 *61:337 0.00294671
33 *61:335 0.0032434
34 *61:298 0.00314553
35 *61:296 0.00420509
36 *61:292 0.00247737
37 *61:264 0.00475306
38 *61:238 0.00477613
39 *61:236 0.00221616
40 *61:226 0.00323682
41 *61:220 0.00419128
42 *61:200 0.00521926
43 *61:194 0.00657832
44 *61:192 0.00517077
45 *61:178 0.00146826
46 *61:174 0.00142831
47 *61:172 0.00146367
48 *61:149 0.00178415
49 *61:147 0.00576509
50 *61:145 0.00662744
51 *61:139 0.0052067
52 *61:115 0.0055143
53 *61:109 0.00370427
54 *61:107 0.00412737
55 *61:76 2.99932e-06
56 *61:61 0.00474866
57 *61:59 0.00469583
58 *61:33 0.00506224
59 *61:31 0.00422093
60 *61:13 0.0746938
61 *61:11 0.0742372
62 *61:9 0.0110046
63 *61:7 0.0119272
64 *337:s4 *316:15 0
65 *338:s4 *338:s5 0
66 *339:s4 *62:149 0.000492999
67 *340:s4 *302:11 0
68 *342:s4 *288:12 0.00100342
69 *342:s4 *304:12 0
70 *345:s4 *62:376 0.000852493
71 *345:s4 *300:15 0.000401601
72 *349:s4 *62:264 0
73 *349:s4 *263:12 0
74 *349:s4 *311:12 0
75 *61:9 *62:9 0.00467286
76 *61:33 *305:11 0.000517803
77 *61:59 *305:11 0.000100305
78 *61:61 *288:12 0
79 *61:109 *287:14 0
80 *61:139 *302:11 0
81 *61:145 *254:11 0
82 *61:145 *286:11 0.00214301
83 *61:145 *302:13 0
84 *61:147 *271:18 0
85 *61:172 *62:149 0.000307893
86 *61:174 *271:18 0.00726282
87 *61:178 *338:s5 0
88 *61:192 *331:13 1.32907e-05
89 *61:194 *271:18 0
90 *61:194 *311:18 0
91 *61:194 *312:21 0
92 *61:236 *351:s5 8.05439e-05
93 *61:236 *62:201 0
94 *61:236 *62:211 0
95 *61:264 *312:17 0.000473397
96 *61:298 *295:8 0
97 *61:335 *278:11 0
98 *61:335 *294:11 0.000357881
99 *61:347 *348:s5 0.000100477
100 *61:347 *326:13 2.23467e-05
101 *61:355 *348:s5 0.000195486
102 *61:392 *62:326 0
103 *61:392 *291:21 0
104 *61:422 *62:326 0
105 *61:422 *62:342 0
106 *61:422 *260:13 0.00604907
107 *61:449 *62:342 0
108 *61:451 *345:s5 5.36496e-06
109 *61:451 *62:344 0.00631856
110 *61:451 *291:21 0.00572272
111 *61:451 *323:19 8.21456e-06
112 *61:455 *62:376 7.09925e-05
113 *61:455 *300:15 0.000247656
114 *341:s3 *61:115 0.000532509
115 *350:s3 *61:292 0
116 *351:s3 *351:s4 0
117 *351:s3 *61:236 0.000461302
118 *52:45 *61:59 0
119 *52:105 *61:107 0.00113646
120 *52:107 *61:109 0.00825457
121 *52:135 *61:115 1.36509e-05
122 *52:137 *61:147 0
123 *52:163 *61:147 0
124 *52:165 *61:147 0
125 *52:169 *61:147 0
126 *52:185 *339:s4 0.00113323
127 *52:204 *61:174 0.00615538
128 *52:204 *61:192 0.000547276
129 *52:204 *61:194 0
130 *52:268 *61:236 0.00262387
131 *52:334 *61:337 0.000169194
132 *52:360 *61:337 0.00244618
133 *52:360 *61:347 0.000791533
134 *52:394 *61:392 0.00348188
135 *52:398 *347:s4 0
136 *52:398 *61:396 0
137 *52:437 *61:451 0.000318311
138 *52:449 *61:451 0.000474841
139 *52:475 *337:s4 9.5053e-05
140 *52:475 *61:474 0.00322582
*RES