*SPEF "ieee 1481-1999"
*DESIGN "user_project_wrapper"
*DATE "11:11:11 Fri 11 11, 1111"
*VENDOR "OpenRCX"
*PROGRAM "Parallel Extraction"
*VERSION "1.0"
*DESIGN_FLOW "NAME_SCOPE LOCAL" "PIN_CAP NONE"
*DIVIDER /
*DELIMITER :
*BUS_DELIMITER []
*T_UNIT 1 NS
*C_UNIT 1 PF
*R_UNIT 1 OHM
*L_UNIT 1 HENRY

*NAME_MAP
*1 analog_io[0]
*2 analog_io[10]
*3 analog_io[11]
*4 analog_io[12]
*5 analog_io[13]
*6 analog_io[14]
*7 analog_io[15]
*8 analog_io[16]
*9 analog_io[17]
*10 analog_io[18]
*11 analog_io[19]
*12 analog_io[1]
*13 analog_io[20]
*14 analog_io[21]
*15 analog_io[22]
*16 analog_io[23]
*17 analog_io[24]
*18 analog_io[25]
*19 analog_io[26]
*20 analog_io[27]
*21 analog_io[28]
*22 analog_io[2]
*23 analog_io[3]
*24 analog_io[4]
*25 analog_io[5]
*26 analog_io[6]
*27 analog_io[7]
*28 analog_io[8]
*29 analog_io[9]
*30 io_in[0]
*31 io_in[10]
*32 io_in[11]
*33 io_in[12]
*34 io_in[13]
*35 io_in[14]
*36 io_in[15]
*37 io_in[16]
*38 io_in[17]
*39 io_in[18]
*40 io_in[19]
*41 io_in[1]
*42 io_in[20]
*43 io_in[21]
*44 io_in[22]
*45 io_in[23]
*46 io_in[24]
*47 io_in[25]
*48 io_in[26]
*49 io_in[27]
*50 io_in[28]
*51 io_in[29]
*52 io_in[2]
*53 io_in[30]
*54 io_in[31]
*55 io_in[32]
*56 io_in[33]
*57 io_in[34]
*58 io_in[35]
*59 io_in[36]
*60 io_in[37]
*61 io_in[3]
*62 io_in[4]
*63 io_in[5]
*64 io_in[6]
*65 io_in[7]
*66 io_in[8]
*67 io_in[9]
*68 io_oeb[0]
*69 io_oeb[10]
*70 io_oeb[11]
*71 io_oeb[12]
*72 io_oeb[13]
*73 io_oeb[14]
*74 io_oeb[15]
*75 io_oeb[16]
*76 io_oeb[17]
*77 io_oeb[18]
*78 io_oeb[19]
*79 io_oeb[1]
*80 io_oeb[20]
*81 io_oeb[21]
*82 io_oeb[22]
*83 io_oeb[23]
*84 io_oeb[24]
*85 io_oeb[25]
*86 io_oeb[26]
*87 io_oeb[27]
*88 io_oeb[28]
*89 io_oeb[29]
*90 io_oeb[2]
*91 io_oeb[30]
*92 io_oeb[31]
*93 io_oeb[32]
*94 io_oeb[33]
*95 io_oeb[34]
*96 io_oeb[35]
*97 io_oeb[36]
*98 io_oeb[37]
*99 io_oeb[3]
*100 io_oeb[4]
*101 io_oeb[5]
*102 io_oeb[6]
*103 io_oeb[7]
*104 io_oeb[8]
*105 io_oeb[9]
*106 io_out[0]
*107 io_out[10]
*108 io_out[11]
*109 io_out[12]
*110 io_out[13]
*111 io_out[14]
*112 io_out[15]
*113 io_out[16]
*114 io_out[17]
*115 io_out[18]
*116 io_out[19]
*117 io_out[1]
*118 io_out[20]
*119 io_out[21]
*120 io_out[22]
*121 io_out[23]
*122 io_out[24]
*123 io_out[25]
*124 io_out[26]
*125 io_out[27]
*126 io_out[28]
*127 io_out[29]
*128 io_out[2]
*129 io_out[30]
*130 io_out[31]
*131 io_out[32]
*132 io_out[33]
*133 io_out[34]
*134 io_out[35]
*135 io_out[36]
*136 io_out[37]
*137 io_out[3]
*138 io_out[4]
*139 io_out[5]
*140 io_out[6]
*141 io_out[7]
*142 io_out[8]
*143 io_out[9]
*146 wb_clk_i
*147 wb_rst_i
*148 wbs_ack_o
*149 wbs_adr_i[0]
*150 wbs_adr_i[10]
*151 wbs_adr_i[11]
*152 wbs_adr_i[12]
*153 wbs_adr_i[13]
*154 wbs_adr_i[14]
*155 wbs_adr_i[15]
*156 wbs_adr_i[16]
*157 wbs_adr_i[17]
*158 wbs_adr_i[18]
*159 wbs_adr_i[19]
*160 wbs_adr_i[1]
*161 wbs_adr_i[20]
*162 wbs_adr_i[21]
*163 wbs_adr_i[22]
*164 wbs_adr_i[23]
*165 wbs_adr_i[24]
*166 wbs_adr_i[25]
*167 wbs_adr_i[26]
*168 wbs_adr_i[27]
*169 wbs_adr_i[28]
*170 wbs_adr_i[29]
*171 wbs_adr_i[2]
*172 wbs_adr_i[30]
*173 wbs_adr_i[31]
*174 wbs_adr_i[3]
*175 wbs_adr_i[4]
*176 wbs_adr_i[5]
*177 wbs_adr_i[6]
*178 wbs_adr_i[7]
*179 wbs_adr_i[8]
*180 wbs_adr_i[9]
*181 wbs_cyc_i
*182 wbs_dat_i[0]
*183 wbs_dat_i[10]
*184 wbs_dat_i[11]
*185 wbs_dat_i[12]
*186 wbs_dat_i[13]
*187 wbs_dat_i[14]
*188 wbs_dat_i[15]
*189 wbs_dat_i[16]
*190 wbs_dat_i[17]
*191 wbs_dat_i[18]
*192 wbs_dat_i[19]
*193 wbs_dat_i[1]
*194 wbs_dat_i[20]
*195 wbs_dat_i[21]
*196 wbs_dat_i[22]
*197 wbs_dat_i[23]
*198 wbs_dat_i[24]
*199 wbs_dat_i[25]
*200 wbs_dat_i[26]
*201 wbs_dat_i[27]
*202 wbs_dat_i[28]
*203 wbs_dat_i[29]
*204 wbs_dat_i[2]
*205 wbs_dat_i[30]
*206 wbs_dat_i[31]
*207 wbs_dat_i[3]
*208 wbs_dat_i[4]
*209 wbs_dat_i[5]
*210 wbs_dat_i[6]
*211 wbs_dat_i[7]
*212 wbs_dat_i[8]
*213 wbs_dat_i[9]
*214 wbs_dat_o[0]
*215 wbs_dat_o[10]
*216 wbs_dat_o[11]
*217 wbs_dat_o[12]
*218 wbs_dat_o[13]
*219 wbs_dat_o[14]
*220 wbs_dat_o[15]
*221 wbs_dat_o[16]
*222 wbs_dat_o[17]
*223 wbs_dat_o[18]
*224 wbs_dat_o[19]
*225 wbs_dat_o[1]
*226 wbs_dat_o[20]
*227 wbs_dat_o[21]
*228 wbs_dat_o[22]
*229 wbs_dat_o[23]
*230 wbs_dat_o[24]
*231 wbs_dat_o[25]
*232 wbs_dat_o[26]
*233 wbs_dat_o[27]
*234 wbs_dat_o[28]
*235 wbs_dat_o[29]
*236 wbs_dat_o[2]
*237 wbs_dat_o[30]
*238 wbs_dat_o[31]
*239 wbs_dat_o[3]
*240 wbs_dat_o[4]
*241 wbs_dat_o[5]
*242 wbs_dat_o[6]
*243 wbs_dat_o[7]
*244 wbs_dat_o[8]
*245 wbs_dat_o[9]
*246 wbs_sel_i[0]
*247 wbs_sel_i[1]
*248 wbs_sel_i[2]
*249 wbs_sel_i[3]
*250 wbs_stb_i
*251 wbs_we_i
*252 x1\[0\]
*253 x1\[10\]
*254 x1\[11\]
*255 x1\[12\]
*256 x1\[13\]
*257 x1\[14\]
*258 x1\[15\]
*259 x1\[1\]
*260 x1\[2\]
*261 x1\[3\]
*262 x1\[4\]
*263 x1\[5\]
*264 x1\[6\]
*265 x1\[7\]
*266 x1\[8\]
*267 x1\[9\]
*268 x2\[0\]
*269 x2\[10\]
*270 x2\[11\]
*271 x2\[12\]
*272 x2\[13\]
*273 x2\[14\]
*274 x2\[15\]
*275 x2\[1\]
*276 x2\[2\]
*277 x2\[3\]
*278 x2\[4\]
*279 x2\[5\]
*280 x2\[6\]
*281 x2\[7\]
*282 x2\[8\]
*283 x2\[9\]
*284 x3\[0\]
*285 x3\[10\]
*286 x3\[11\]
*287 x3\[12\]
*288 x3\[13\]
*289 x3\[14\]
*290 x3\[15\]
*291 x3\[1\]
*292 x3\[2\]
*293 x3\[3\]
*294 x3\[4\]
*295 x3\[5\]
*296 x3\[6\]
*297 x3\[7\]
*298 x3\[8\]
*299 x3\[9\]
*300 x4\[0\]
*301 x4\[10\]
*302 x4\[11\]
*303 x4\[12\]
*304 x4\[13\]
*305 x4\[14\]
*306 x4\[15\]
*307 x4\[1\]
*308 x4\[2\]
*309 x4\[3\]
*310 x4\[4\]
*311 x4\[5\]
*312 x4\[6\]
*313 x4\[7\]
*314 x4\[8\]
*315 x4\[9\]
*316 x5\[0\]
*317 x5\[10\]
*318 x5\[11\]
*319 x5\[12\]
*320 x5\[13\]
*321 x5\[14\]
*322 x5\[15\]
*323 x5\[1\]
*324 x5\[2\]
*325 x5\[3\]
*326 x5\[4\]
*327 x5\[5\]
*328 x5\[6\]
*329 x5\[7\]
*330 x5\[8\]
*331 x5\[9\]
*332 mprj1
*333 mprj2
*334 mprj3
*335 mprj4
*336 mprj5
*337 ro1
*338 ro10
*339 ro11
*340 ro12
*341 ro13
*342 ro14
*343 ro15
*344 ro16
*345 ro2
*346 ro3
*347 ro4
*348 ro5
*349 ro6
*350 ro7
*351 ro8
*352 ro9

*PORTS
analog_io[0] I
analog_io[10] I
analog_io[11] I
analog_io[12] I
analog_io[13] I
analog_io[14] I
analog_io[15] I
analog_io[16] I
analog_io[17] I
analog_io[18] I
analog_io[19] I
analog_io[1] I
analog_io[20] I
analog_io[21] I
analog_io[22] I
analog_io[23] I
analog_io[24] I
analog_io[25] I
analog_io[26] I
analog_io[27] I
analog_io[28] I
analog_io[2] I
analog_io[3] I
analog_io[4] I
analog_io[5] I
analog_io[6] I
analog_io[7] I
analog_io[8] I
analog_io[9] I
io_in[0] I
io_in[10] I
io_in[11] I
io_in[12] I
io_in[13] I
io_in[14] I
io_in[15] I
io_in[16] I
io_in[17] I
io_in[18] I
io_in[19] I
io_in[1] I
io_in[20] I
io_in[21] I
io_in[22] I
io_in[23] I
io_in[24] I
io_in[25] I
io_in[26] I
io_in[27] I
io_in[28] I
io_in[29] I
io_in[2] I
io_in[30] I
io_in[31] I
io_in[32] I
io_in[33] I
io_in[34] I
io_in[35] I
io_in[36] I
io_in[37] I
io_in[3] I
io_in[4] I
io_in[5] I
io_in[6] I
io_in[7] I
io_in[8] I
io_in[9] I
io_oeb[0] O
io_oeb[10] O
io_oeb[11] O
io_oeb[12] O
io_oeb[13] O
io_oeb[14] O
io_oeb[15] O
io_oeb[16] O
io_oeb[17] O
io_oeb[18] O
io_oeb[19] O
io_oeb[1] O
io_oeb[20] O
io_oeb[21] O
io_oeb[22] O
io_oeb[23] O
io_oeb[24] O
io_oeb[25] O
io_oeb[26] O
io_oeb[27] O
io_oeb[28] O
io_oeb[29] O
io_oeb[2] O
io_oeb[30] O
io_oeb[31] O
io_oeb[32] O
io_oeb[33] O
io_oeb[34] O
io_oeb[35] O
io_oeb[36] O
io_oeb[37] O
io_oeb[3] O
io_oeb[4] O
io_oeb[5] O
io_oeb[6] O
io_oeb[7] O
io_oeb[8] O
io_oeb[9] O
io_out[0] O
io_out[10] O
io_out[11] O
io_out[12] O
io_out[13] O
io_out[14] O
io_out[15] O
io_out[16] O
io_out[17] O
io_out[18] O
io_out[19] O
io_out[1] O
io_out[20] O
io_out[21] O
io_out[22] O
io_out[23] O
io_out[24] O
io_out[25] O
io_out[26] O
io_out[27] O
io_out[28] O
io_out[29] O
io_out[2] O
io_out[30] O
io_out[31] O
io_out[32] O
io_out[33] O
io_out[34] O
io_out[35] O
io_out[36] O
io_out[37] O
io_out[3] O
io_out[4] O
io_out[5] O
io_out[6] O
io_out[7] O
io_out[8] O
io_out[9] O
wb_clk_i I
wb_rst_i I
wbs_ack_o O
wbs_adr_i[0] I
wbs_adr_i[10] I
wbs_adr_i[11] I
wbs_adr_i[12] I
wbs_adr_i[13] I
wbs_adr_i[14] I
wbs_adr_i[15] I
wbs_adr_i[16] I
wbs_adr_i[17] I
wbs_adr_i[18] I
wbs_adr_i[19] I
wbs_adr_i[1] I
wbs_adr_i[20] I
wbs_adr_i[21] I
wbs_adr_i[22] I
wbs_adr_i[23] I
wbs_adr_i[24] I
wbs_adr_i[25] I
wbs_adr_i[26] I
wbs_adr_i[27] I
wbs_adr_i[28] I
wbs_adr_i[29] I
wbs_adr_i[2] I
wbs_adr_i[30] I
wbs_adr_i[31] I
wbs_adr_i[3] I
wbs_adr_i[4] I
wbs_adr_i[5] I
wbs_adr_i[6] I
wbs_adr_i[7] I
wbs_adr_i[8] I
wbs_adr_i[9] I
wbs_cyc_i I
wbs_dat_i[0] I
wbs_dat_i[10] I
wbs_dat_i[11] I
wbs_dat_i[12] I
wbs_dat_i[13] I
wbs_dat_i[14] I
wbs_dat_i[15] I
wbs_dat_i[16] I
wbs_dat_i[17] I
wbs_dat_i[18] I
wbs_dat_i[19] I
wbs_dat_i[1] I
wbs_dat_i[20] I
wbs_dat_i[21] I
wbs_dat_i[22] I
wbs_dat_i[23] I
wbs_dat_i[24] I
wbs_dat_i[25] I
wbs_dat_i[26] I
wbs_dat_i[27] I
wbs_dat_i[28] I
wbs_dat_i[29] I
wbs_dat_i[2] I
wbs_dat_i[30] I
wbs_dat_i[31] I
wbs_dat_i[3] I
wbs_dat_i[4] I
wbs_dat_i[5] I
wbs_dat_i[6] I
wbs_dat_i[7] I
wbs_dat_i[8] I
wbs_dat_i[9] I
wbs_dat_o[0] O
wbs_dat_o[10] O
wbs_dat_o[11] O
wbs_dat_o[12] O
wbs_dat_o[13] O
wbs_dat_o[14] O
wbs_dat_o[15] O
wbs_dat_o[16] O
wbs_dat_o[17] O
wbs_dat_o[18] O
wbs_dat_o[19] O
wbs_dat_o[1] O
wbs_dat_o[20] O
wbs_dat_o[21] O
wbs_dat_o[22] O
wbs_dat_o[23] O
wbs_dat_o[24] O
wbs_dat_o[25] O
wbs_dat_o[26] O
wbs_dat_o[27] O
wbs_dat_o[28] O
wbs_dat_o[29] O
wbs_dat_o[2] O
wbs_dat_o[30] O
wbs_dat_o[31] O
wbs_dat_o[3] O
wbs_dat_o[4] O
wbs_dat_o[5] O
wbs_dat_o[6] O
wbs_dat_o[7] O
wbs_dat_o[8] O
wbs_dat_o[9] O
wbs_sel_i[0] I
wbs_sel_i[1] I
wbs_sel_i[2] I
wbs_sel_i[3] I
wbs_stb_i I
wbs_we_i I

*D_NET *30 0.424919
*CONN
*P io_in[0] I
*I *347:s1 I *D sky130_osu_ring_oscillator_mpr2ct_8_b0r1
*I *337:s1 I *D sky130_osu_ring_oscillator_mpr2aa_8_b0r1
*I *345:s1 I *D sky130_osu_ring_oscillator_mpr2at_8_b0r1
*I *346:s1 I *D sky130_osu_ring_oscillator_mpr2ca_8_b0r1
*I *348:s1 I *D sky130_osu_ring_oscillator_mpr2ea_8_b0r1
*I *349:s1 I *D sky130_osu_ring_oscillator_mpr2et_8_b0r1
*I *350:s1 I *D sky130_osu_ring_oscillator_mpr2xa_8_b0r1
*I *351:s1 I *D sky130_osu_ring_oscillator_mpr2ya_8_b0r1
*I *352:s1 I *D sky130_osu_ring_oscillator_mpr2aa_8_b0r2
*I *338:s1 I *D sky130_osu_ring_oscillator_mpr2at_8_b0r2
*I *339:s1 I *D sky130_osu_ring_oscillator_mpr2ca_8_b0r2
*I *340:s1 I *D sky130_osu_ring_oscillator_mpr2ct_8_b0r2
*I *341:s1 I *D sky130_osu_ring_oscillator_mpr2ea_8_b0r2
*I *342:s1 I *D sky130_osu_ring_oscillator_mpr2et_8_b0r2
*I *343:s1 I *D sky130_osu_ring_oscillator_mpr2xa_8_b0r2
*I *344:s1 I *D sky130_osu_ring_oscillator_mpr2ya_8_b0r2
*CAP
1 io_in[0] 0.0486553
2 *347:s1 0.000155899
3 *337:s1 0.000537503
4 *345:s1 0.00181148
5 *346:s1 0.00474999
6 *348:s1 0.000454643
7 *349:s1 0.000588929
8 *350:s1 0.00107016
9 *351:s1 0.000360202
10 *352:s1 0.000493129
11 *338:s1 0.0019188
12 *339:s1 0.000266705
13 *340:s1 0.000181874
14 *341:s1 0.000442379
15 *342:s1 0.000573788
16 *343:s1 0.000295407
17 *344:s1 0.00126914
18 *30:369 0.00276037
19 *30:367 0.00381969
20 *30:339 0.00446752
21 *30:337 0.00467587
22 *30:310 0.00529917
23 *30:302 0.00383915
24 *30:300 0.00460661
25 *30:283 0.00339862
26 *30:279 0.00379044
27 *30:264 0.00591098
28 *30:262 0.00333448
29 *30:233 0.00605448
30 *30:231 0.00502643
31 *30:212 0.00426974
32 *30:197 0.00673845
33 *30:195 0.00367244
34 *30:191 0.000833466
35 *30:173 0.00433853
36 *30:171 0.0027131
37 *30:158 0.0026302
38 *30:146 0.0055726
39 *30:144 0.00423193
40 *30:124 0.00251757
41 *30:122 0.00278602
42 *30:118 0.00196299
43 *30:97 0.00103655
44 *30:93 0.00296424
45 *30:74 0.00592633
46 *30:72 0.00382158
47 *30:55 0.00238328
48 *30:43 0.00225612
49 *30:13 0.0248389
50 *30:11 0.0220726
51 *30:9 0.0379168
52 *30:7 0.0379168
53 *30:5 0.0486553
54 *337:s1 *337:start 3.43376e-05
55 *338:s1 *267:11 0
56 *341:s1 *341:start 9.84643e-06
57 *342:s1 *342:start 6.66635e-05
58 *343:s1 *52:51 7.26932e-05
59 *346:s1 *260:7 0
60 *348:s1 *348:start 9.33978e-07
61 *349:s1 *349:start 0.000136682
62 *350:s1 *350:s2 0.000197017
63 *350:s1 *350:start 5.28838e-05
64 *350:s1 *41:251 6.8099e-05
65 *350:s1 *41:257 0
66 *350:s1 *52:321 8.14332e-05
67 *350:s1 *52:338 0.00200881
68 *351:s1 *351:start 1.20319e-05
69 *352:s1 *352:start 5.49995e-05
70 *30:13 *344:s4 0.000388307
71 *30:13 *41:17 0.00294883
72 *30:13 *61:35 0.00056654
73 *30:43 *41:23 0.00149158
74 *30:43 *41:25 0.00104061
75 *30:55 *343:start 8.6835e-05
76 *30:55 *41:25 0.00227212
77 *30:55 *52:43 0.00175427
78 *30:72 *343:s2 0
79 *30:72 *343:start 0.000963267
80 *30:72 *41:59 0.00252394
81 *30:72 *63:17 6.87203e-05
82 *30:74 *41:61 0.00660998
83 *30:93 *41:61 0.000729055
84 *30:93 *41:88 0.00689312
85 *30:97 *41:88 1.11596e-05
86 *30:118 *41:88 0.00021165
87 *30:118 *41:116 0.000187505
88 *30:122 *41:116 0.00198766
89 *30:124 *41:116 0.00117212
90 *30:144 *41:116 8.19196e-05
91 *30:158 *41:160 0.00391768
92 *30:195 *338:start 3.36355e-05
93 *30:197 *41:188 0.000820177
94 *30:197 *41:215 0.00676922
95 *30:212 *41:215 0.000643031
96 *30:212 *41:243 0.00692595
97 *30:231 *41:243 0.00067846
98 *30:231 *41:247 0.000148954
99 *30:262 *52:338 0.000159485
100 *30:264 *41:259 0.00685605
101 *30:279 *41:259 0.000839901
102 *30:279 *41:288 0.000916678
103 *30:279 *41:290 0
104 *30:283 *41:290 0.00238459
105 *30:300 *41:290 0.000239866
106 *30:339 *259:12 0
107 *30:367 *345:s2 1.76696e-05
108 *30:369 *41:396 0.00591768
*RES
1 io_in[0] *30:5 150.679 
2 *30:5 *30:7 3.41 
3 *30:7 *30:9 780.304 
4 *30:9 *30:11 3.41 
5 *30:11 *30:13 71.393 
6 *30:13 *344:s1 24.2147 
7 *30:13 *30:43 48.7761 
8 *30:43 *30:55 47.875 
9 *30:55 *343:s1 20.0634 
10 *30:55 *30:72 23.698 
11 *30:72 *30:74 81.0268 
12 *30:74 *342:s1 25.5098 
13 *30:74 *30:93 93.4732 
14 *30:93 *30:97 1.52679 
15 *30:97 *341:s1 22.6929 
16 *30:97 *30:118 13.2768 
17 *30:118 *30:122 43.7857 
18 *30:122 *30:124 36.9732 
19 *30:124 *340:s1 8.08482 
20 *30:124 *30:144 12.1821 
21 *30:144 *30:146 65.6964 
22 *30:146 *30:158 45.3824 
23 *30:158 *339:s1 4.2513 
24 *30:158 *30:171 3.41 
25 *30:171 *30:173 55.4464 
26 *30:173 *338:s1 33.7902 
27 *338:s1 *30:191 10.2723 
28 *30:191 *30:195 14.8929 
29 *30:195 *30:197 94.6875 
30 *30:197 *352:s1 23.2375 
31 *30:197 *30:212 94.3839 
32 *30:212 *351:s1 20.7509 
33 *30:212 *30:231 20.0647 
34 *30:231 *30:233 86.9464 
35 *30:233 *350:s1 35.9266 
36 *30:233 *30:262 13.8976 
37 *30:262 *30:264 84.0625 
38 *30:264 *349:s1 25.6571 
39 *30:264 *30:279 64.5982 
40 *30:279 *30:283 31.1161 
41 *30:283 *348:s1 22.617 
42 *30:283 *30:300 38.7946 
43 *30:300 *30:302 54.125 
44 *30:302 *30:310 11.6546 
45 *30:310 *346:s1 88.7054 
46 *346:s1 *30:337 9.1454 
47 *30:337 *30:339 87.5536 
48 *30:339 *345:s1 4.59821 
49 *345:s1 *30:367 27.7337 
50 *30:367 *30:369 72.5268 
51 *30:369 *337:s1 24.3089 
52 *30:302 *347:s1 7.74554 
*END

*D_NET *41 0.473503
*CONN
*P io_in[1] I
*I *344:s2 I *D sky130_osu_ring_oscillator_mpr2ya_8_b0r2
*I *351:s2 I *D sky130_osu_ring_oscillator_mpr2ya_8_b0r1
*I *350:s2 I *D sky130_osu_ring_oscillator_mpr2xa_8_b0r1
*I *346:s2 I *D sky130_osu_ring_oscillator_mpr2ca_8_b0r1
*I *337:s2 I *D sky130_osu_ring_oscillator_mpr2aa_8_b0r1
*I *345:s2 I *D sky130_osu_ring_oscillator_mpr2at_8_b0r1
*I *347:s2 I *D sky130_osu_ring_oscillator_mpr2ct_8_b0r1
*I *348:s2 I *D sky130_osu_ring_oscillator_mpr2ea_8_b0r1
*I *349:s2 I *D sky130_osu_ring_oscillator_mpr2et_8_b0r1
*I *352:s2 I *D sky130_osu_ring_oscillator_mpr2aa_8_b0r2
*I *338:s2 I *D sky130_osu_ring_oscillator_mpr2at_8_b0r2
*I *339:s2 I *D sky130_osu_ring_oscillator_mpr2ca_8_b0r2
*I *340:s2 I *D sky130_osu_ring_oscillator_mpr2ct_8_b0r2
*I *341:s2 I *D sky130_osu_ring_oscillator_mpr2ea_8_b0r2
*I *342:s2 I *D sky130_osu_ring_oscillator_mpr2et_8_b0r2
*I *343:s2 I *D sky130_osu_ring_oscillator_mpr2xa_8_b0r2
*CAP
1 io_in[1] 0.0689714
2 *344:s2 0.000558149
3 *351:s2 0.000722768
4 *350:s2 0.00169679
5 *346:s2 0.00104648
6 *337:s2 0.00198607
7 *345:s2 0.00208888
8 *347:s2 0.00261912
9 *348:s2 0.000296848
10 *349:s2 0.00174687
11 *352:s2 0.00199159
12 *338:s2 0
13 *339:s2 0.000458271
14 *340:s2 0.00183817
15 *341:s2 0.00213083
16 *342:s2 0.0022758
17 *343:s2 0.00214991
18 *41:477 0
19 *41:396 0.00472058
20 *41:376 0.00549239
21 *41:372 0.00504223
22 *41:370 0.00957011
23 *41:368 0.00641763
24 *41:326 0.00272562
25 *41:316 0.00414793
26 *41:296 0.00361288
27 *41:290 0.00474664
28 *41:288 0.00361636
29 *41:259 0.00375311
30 *41:257 0.00311163
31 *41:251 0.00609057
32 *41:249 0.00287684
33 *41:247 0.00191279
34 *41:243 0.00432188
35 *41:215 0.00816566
36 *41:208 0.00196496
37 *41:188 0.00754005
38 *41:186 0.00367433
39 *41:182 0.00334273
40 *41:160 0.00461087
41 *41:148 0.00473288
42 *41:120 0.0050117
43 *41:116 0.00356075
44 *41:88 0.00814236
45 *41:61 0.00790328
46 *41:59 0.00376825
47 *41:25 0.00499596
48 *41:23 0.00324559
49 *41:17 0.00346368
50 *41:9 0.024549
51 *41:7 0.0230265
52 *41:5 0.0689714
53 *347:s2 *277:12 0
54 *349:s2 *52:344 0.00331838
55 *350:s2 *350:start 0.000204508
56 *351:s2 *52:311 8.14657e-05
57 *41:9 *52:9 0.0334275
58 *41:17 *344:s4 0.00210366
59 *41:25 *343:start 0.000456305
60 *41:25 *52:43 0
61 *41:59 *343:start 0.00013227
62 *41:59 *63:17 4.75956e-06
63 *41:59 *63:30 0.00103334
64 *41:247 *52:311 2.57626e-05
65 *41:251 *350:start 0.000154197
66 *41:251 *52:313 0.00370209
67 *41:251 *52:338 6.51634e-05
68 *41:257 *52:338 0
69 *41:259 *52:340 0.00788459
70 *350:s1 *350:s2 0.000197017
71 *350:s1 *41:251 6.8099e-05
72 *350:s1 *41:257 0
73 *30:13 *41:17 0.00294883
74 *30:43 *41:23 0.00149158
75 *30:43 *41:25 0.00104061
76 *30:55 *41:25 0.00227212
77 *30:72 *343:s2 0
78 *30:72 *41:59 0.00252394
79 *30:74 *41:61 0.00660998
80 *30:93 *41:61 0.000729055
81 *30:93 *41:88 0.00689312
82 *30:97 *41:88 1.11596e-05
83 *30:118 *41:88 0.00021165
84 *30:118 *41:116 0.000187505
85 *30:122 *41:116 0.00198766
86 *30:124 *41:116 0.00117212
87 *30:144 *41:116 8.19196e-05
88 *30:158 *41:160 0.00391768
89 *30:197 *41:188 0.000820177
90 *30:197 *41:215 0.00676922
91 *30:212 *41:215 0.000643031
92 *30:212 *41:243 0.00692595
93 *30:231 *41:243 0.00067846
94 *30:231 *41:247 0.000148954
95 *30:264 *41:259 0.00685605
96 *30:279 *41:259 0.000839901
97 *30:279 *41:288 0.000916678
98 *30:279 *41:290 0
99 *30:283 *41:290 0.00238459
100 *30:300 *41:290 0.000239866
101 *30:367 *345:s2 1.76696e-05
102 *30:369 *41:396 0.00591768
*RES
1 io_in[1] *41:5 213.377 
2 *41:5 *41:7 3.41 
3 *41:7 *41:9 601.804 
4 *41:9 *41:17 16.4206 
5 *41:17 *41:23 38.2143 
6 *41:23 *41:25 58.4107 
7 *41:25 *343:s2 28.4779 
8 *41:25 *41:59 13.9914 
9 *41:59 *41:61 90.5893 
10 *41:61 *342:s2 32.4263 
11 *41:61 *41:88 91.8036 
12 *41:88 *341:s2 27.4716 
13 *41:88 *41:116 92.1607 
14 *41:116 *41:120 7.80357 
15 *41:120 *340:s2 29.3339 
16 *41:120 *41:148 55.4107 
17 *41:148 *41:160 42.9142 
18 *41:160 *339:s2 11.4241 
19 *41:160 *41:182 48.4636 
20 *41:182 *41:186 6.77207 
21 *41:186 *41:188 53.5536 
22 *41:188 *41:208 40.9401 
23 *41:208 *338:s2 9.3 
24 *41:188 *41:215 92.4107 
25 *41:215 *352:s2 26.6699 
26 *41:215 *41:243 94.8393 
27 *41:243 *41:247 7.27653 
28 *41:247 *41:249 3.41 
29 *41:249 *41:251 86.3393 
30 *41:251 *41:257 10.9027 
31 *41:257 *41:259 103.339 
32 *41:259 *349:s2 34.1412 
33 *41:259 *41:288 12.6607 
34 *41:288 *41:290 75.7679 
35 *41:290 *41:296 11.4793 
36 *41:296 *348:s2 11.0979 
37 *41:296 *41:316 36.3214 
38 *41:316 *41:326 48.5699 
39 *41:326 *347:s2 14.8118 
40 *347:s2 *41:368 29.1106 
41 *41:368 *41:370 82.6964 
42 *41:370 *41:372 87.3393 
43 *41:372 *41:376 13.8393 
44 *41:376 *345:s2 16.1601 
45 *41:376 *41:396 82.6964 
46 *41:396 *337:s2 15.0434 
47 *41:370 *346:s2 25.4152 
48 *41:251 *350:s2 15.7922 
49 *41:247 *351:s2 20.0297 
50 *351:s2 *41:477 0.194444 
51 *41:17 *344:s2 16.2796 
*END

*D_NET *52 0.479975
*CONN
*P io_in[2] I
*I *337:s3 I *D sky130_osu_ring_oscillator_mpr2aa_8_b0r1
*I *345:s3 I *D sky130_osu_ring_oscillator_mpr2at_8_b0r1
*I *346:s3 I *D sky130_osu_ring_oscillator_mpr2ca_8_b0r1
*I *347:s3 I *D sky130_osu_ring_oscillator_mpr2ct_8_b0r1
*I *348:s3 I *D sky130_osu_ring_oscillator_mpr2ea_8_b0r1
*I *349:s3 I *D sky130_osu_ring_oscillator_mpr2et_8_b0r1
*I *350:s3 I *D sky130_osu_ring_oscillator_mpr2xa_8_b0r1
*I *351:s3 I *D sky130_osu_ring_oscillator_mpr2ya_8_b0r1
*I *352:s3 I *D sky130_osu_ring_oscillator_mpr2aa_8_b0r2
*I *338:s3 I *D sky130_osu_ring_oscillator_mpr2at_8_b0r2
*I *339:s3 I *D sky130_osu_ring_oscillator_mpr2ca_8_b0r2
*I *340:s3 I *D sky130_osu_ring_oscillator_mpr2ct_8_b0r2
*I *341:s3 I *D sky130_osu_ring_oscillator_mpr2ea_8_b0r2
*I *342:s3 I *D sky130_osu_ring_oscillator_mpr2et_8_b0r2
*I *343:s3 I *D sky130_osu_ring_oscillator_mpr2xa_8_b0r2
*I *344:s3 I *D sky130_osu_ring_oscillator_mpr2ya_8_b0r2
*CAP
1 io_in[2] 0.0737369
2 *337:s3 0.00263407
3 *345:s3 0.00196864
4 *346:s3 0.00289374
5 *347:s3 0.00200399
6 *348:s3 0.00244883
7 *349:s3 0.000722513
8 *350:s3 0
9 *351:s3 0.000516066
10 *352:s3 0.00248265
11 *338:s3 0.00217395
12 *339:s3 0.00254575
13 *340:s3 0.00224319
14 *341:s3 0.00253374
15 *342:s3 0.00237391
16 *343:s3 0
17 *344:s3 0.000463168
18 *52:482 0.00563096
19 *52:480 0.00299689
20 *52:456 0.00232971
21 *52:452 0.00185045
22 *52:429 0.00513308
23 *52:425 0.00369304
24 *52:402 0.00630791
25 *52:400 0.00375145
26 *52:372 0.00918122
27 *52:370 0.0061603
28 *52:344 0.00471255
29 *52:340 0.00517641
30 *52:338 0.00433274
31 *52:321 0.00184319
32 *52:313 0.00583977
33 *52:311 0.00384601
34 *52:283 0.00360301
35 *52:277 0.00609795
36 *52:249 0.00696846
37 *52:243 0.00337704
38 *52:241 0.00307949
39 *52:217 0.00248651
40 *52:213 0.00204845
41 *52:211 0.00292394
42 *52:207 0.00221114
43 *52:174 0.00737159
44 *52:169 0
45 *52:150 0.0063367
46 *52:142 0.00507755
47 *52:116 0.0083492
48 *52:112 0.00435202
49 *52:84 0.00604951
50 *52:78 0.00489725
51 *52:76 0.00724819
52 *52:51 0.0044458
53 *52:43 0.00338867
54 *52:39 0.0048473
55 *52:15 0.00544527
56 *52:9 0.0154721
57 *52:7 0.0136912
58 *52:5 0.0737369
59 *338:s3 *314:9 0.000679368
60 *340:s3 *61:169 0.000804668
61 *341:s3 *61:101 0.00085207
62 *342:s3 *342:s4 0.00113149
63 *342:s3 *61:65 0.000636816
64 *342:s3 *62:67 0
65 *345:s3 *345:s4 0.000373959
66 *346:s3 *61:492 0.000363013
67 *346:s3 *291:14 0
68 *347:s3 *276:9 0.00114291
69 *348:s3 *62:267 0.000446939
70 *348:s3 *309:15 0.00074709
71 *352:s3 *62:170 0
72 *52:15 *344:s4 7.94589e-06
73 *52:15 *344:s5 5.26982e-06
74 *52:76 *61:59 0
75 *52:76 *63:13 0.00131935
76 *52:78 *61:61 0
77 *52:78 *62:57 0
78 *52:78 *272:22 0
79 *52:84 *61:65 0
80 *52:84 *62:61 0
81 *52:112 *62:67 0
82 *52:116 *62:71 0
83 *52:116 *62:85 0
84 *52:142 *61:171 5.59239e-05
85 *52:142 *62:85 0
86 *52:142 *62:99 0
87 *52:142 *329:9 0
88 *52:142 *330:11 0
89 *52:150 *61:169 0.000493233
90 *52:150 *62:99 0
91 *52:174 *62:99 0
92 *52:174 *62:103 0.00213192
93 *52:174 *62:123 0.000877389
94 *52:207 *335:data_in[9] 0.000388814
95 *52:211 *329:9 0.00303064
96 *52:213 *61:225 0
97 *52:213 *61:251 0
98 *52:213 *329:9 0.00149214
99 *52:213 *331:15 1.54457e-05
100 *52:217 *314:9 0.000336625
101 *52:243 *61:253 0.00683179
102 *52:243 *62:170 0
103 *52:277 *62:170 0
104 *52:277 *296:17 0.000675355
105 *52:283 *61:307 0
106 *52:338 *350:start 1.37595e-05
107 *52:370 *61:378 0.000684315
108 *52:370 *310:11 0
109 *52:372 *62:267 0.00105299
110 *52:400 *62:269 0
111 *52:402 *61:439 0.00307097
112 *52:402 *62:269 0
113 *52:402 *62:287 0.000228702
114 *52:402 *325:15 5.45706e-06
115 *52:425 *61:439 0.000450823
116 *52:425 *62:287 0.00263693
117 *52:425 *62:303 9.28868e-05
118 *52:429 *61:494 0.000105716
119 *52:429 *62:303 0
120 *52:452 *61:494 0.0059714
121 *52:452 *61:504 0.000560692
122 *52:452 *300:17 0.00603284
123 *52:452 *323:16 1.94879e-05
124 *52:456 *345:s4 2.40453e-05
125 *52:456 *61:504 0.000233215
126 *52:482 *337:s4 0.000110307
127 *52:482 *61:523 0.00322634
128 *343:s1 *52:51 7.26932e-05
129 *349:s2 *52:344 0.00331838
130 *350:s1 *52:321 8.14332e-05
131 *350:s1 *52:338 0.00200881
132 *351:s2 *52:311 8.14657e-05
133 *30:55 *52:43 0.00175427
134 *30:262 *52:338 0.000159485
135 *41:9 *52:9 0.0334275
136 *41:25 *52:43 0
137 *41:247 *52:311 2.57626e-05
138 *41:251 *52:313 0.00370209
139 *41:251 *52:338 6.51634e-05
140 *41:257 *52:338 0
141 *41:259 *52:340 0.00788459
*RES
1 io_in[2] *52:5 213.305 
2 *52:5 *52:7 3.41 
3 *52:7 *52:9 416.625 
4 *52:9 *52:15 12.272 
5 *52:15 *344:s3 10.8179 
6 *52:15 *52:39 49.788 
7 *52:39 *52:43 48.3118 
8 *52:43 *52:51 42.6741 
9 *52:51 *343:s3 4.5 
10 *52:51 *52:76 33.5303 
11 *52:76 *52:78 92.4107 
12 *52:78 *52:84 7.948 
13 *52:84 *342:s3 33.476 
14 *52:84 *52:112 68.0893 
15 *52:112 *52:116 20.7321 
16 *52:116 *341:s3 28.5314 
17 *52:116 *52:142 97.875 
18 *52:142 *52:150 9.60616 
19 *52:150 *340:s3 32.1987 
20 *340:s3 *52:169 0.194444 
21 *52:150 *52:174 90.5893 
22 *52:174 *339:s3 29.3315 
23 *52:174 *52:207 22.3447 
24 *52:207 *52:211 38.1786 
25 *52:211 *52:213 48.0179 
26 *52:213 *52:217 4.82627 
27 *52:217 *338:s3 28.0406 
28 *52:217 *52:241 3.41 
29 *52:241 *52:243 93.625 
30 *52:243 *52:249 7.58767 
31 *52:249 *352:s3 32.3644 
32 *52:249 *52:277 86.9464 
33 *52:277 *52:283 12.6323 
34 *52:283 *351:s3 14.9515 
35 *52:283 *52:311 15.339 
36 *52:311 *52:313 81.0268 
37 *52:313 *52:321 46.2411 
38 *52:321 *350:s3 4.5 
39 *52:313 *52:338 17.7519 
40 *52:338 *52:340 96.6607 
41 *52:340 *52:344 11.8167 
42 *52:344 *349:s3 22.3972 
43 *52:344 *52:370 9.43853 
44 *52:370 *52:372 93.0179 
45 *52:372 *348:s3 29.6383 
46 *52:372 *52:400 48.9286 
47 *52:400 *52:402 43.5357 
48 *52:402 *347:s3 26.15 
49 *52:402 *52:425 86.0893 
50 *52:425 *52:429 15.7143 
51 *52:429 *346:s3 32.241 
52 *52:429 *52:452 88.7679 
53 *52:452 *52:456 4.89833 
54 *52:456 *345:s3 22.0804 
55 *52:456 *52:480 3.41 
56 *52:480 *52:482 83.9107 
57 *52:482 *337:s3 27.7065 
*END

*D_NET *61 0.379763
*CONN
*P io_in[3] I
*I *337:s4 I *D sky130_osu_ring_oscillator_mpr2aa_8_b0r1
*I *345:s4 I *D sky130_osu_ring_oscillator_mpr2at_8_b0r1
*I *346:s4 I *D sky130_osu_ring_oscillator_mpr2ca_8_b0r1
*I *347:s4 I *D sky130_osu_ring_oscillator_mpr2ct_8_b0r1
*I *348:s4 I *D sky130_osu_ring_oscillator_mpr2ea_8_b0r1
*I *349:s4 I *D sky130_osu_ring_oscillator_mpr2et_8_b0r1
*I *350:s4 I *D sky130_osu_ring_oscillator_mpr2xa_8_b0r1
*I *351:s4 I *D sky130_osu_ring_oscillator_mpr2ya_8_b0r1
*I *352:s4 I *D sky130_osu_ring_oscillator_mpr2aa_8_b0r2
*I *338:s4 I *D sky130_osu_ring_oscillator_mpr2at_8_b0r2
*I *339:s4 I *D sky130_osu_ring_oscillator_mpr2ca_8_b0r2
*I *340:s4 I *D sky130_osu_ring_oscillator_mpr2ct_8_b0r2
*I *341:s4 I *D sky130_osu_ring_oscillator_mpr2ea_8_b0r2
*I *342:s4 I *D sky130_osu_ring_oscillator_mpr2et_8_b0r2
*I *343:s4 I *D sky130_osu_ring_oscillator_mpr2xa_8_b0r2
*I *344:s4 I *D sky130_osu_ring_oscillator_mpr2ya_8_b0r2
*CAP
1 io_in[3] 0.0684851
2 *337:s4 0.00123733
3 *345:s4 0.000960294
4 *346:s4 0.00128018
5 *347:s4 0.00168533
6 *348:s4 0.000290863
7 *349:s4 0.00112684
8 *350:s4 0.00192106
9 *351:s4 0.000124027
10 *352:s4 0.000345127
11 *338:s4 0.000986346
12 *339:s4 0.000120253
13 *340:s4 5.95566e-05
14 *341:s4 0.000780591
15 *342:s4 0.00109554
16 *343:s4 0.000860835
17 *344:s4 0.00139551
18 *61:523 0.0037441
19 *61:521 0.00250678
20 *61:504 0.00171831
21 *61:494 0.00306268
22 *61:492 0.00275009
23 *61:465 0.00599509
24 *61:463 0.00426949
25 *61:439 0.00324766
26 *61:433 0.00282339
27 *61:427 0.00426776
28 *61:425 0.00348236
29 *61:398 0.00270093
30 *61:380 0.00457569
31 *61:378 0.00354367
32 *61:350 0.00502727
33 *61:348 0.00379724
34 *61:309 0.00507486
35 *61:307 0.00419589
36 *61:283 0.000667393
37 *61:279 0.0041943
38 *61:259 0.00546069
39 *61:253 0.00436307
40 *61:251 0.00389792
41 *61:225 0.00409486
42 *61:217 0.00473764
43 *61:215 0.00358839
44 *61:187 0.00246847
45 *61:171 0.00498401
46 *61:169 0.00577669
47 *61:141 0.0035554
48 *61:125 0.00484527
49 *61:101 0.0046902
50 *61:95 0.00507906
51 *61:93 0.00445712
52 *61:65 0.001368
53 *61:61 0.00494948
54 *61:59 0.0057969
55 *61:39 0.00198071
56 *61:37 0.00244862
57 *61:35 0.00269524
58 *61:11 0.00164213
59 *61:9 0.011968
60 *61:7 0.011968
61 *61:5 0.0684851
62 *337:s4 *300:15 0
63 *337:s4 *316:15 0
64 *343:s4 *343:s5 0.000483062
65 *344:s4 *344:s5 0.00159458
66 *345:s4 *62:325 0.000850085
67 *346:s4 *291:14 0.000579041
68 *347:s4 *276:9 0.000391606
69 *350:s4 *264:10 0.000407918
70 *350:s4 *280:10 0.000624669
71 *350:s4 *312:16 0
72 *61:35 *344:s5 0.00140354
73 *61:37 *62:35 0.00637267
74 *61:37 *62:55 1.63162e-05
75 *61:59 *343:s5 4.08637e-05
76 *61:59 *62:55 0.000611501
77 *61:61 *342:s5 0
78 *61:65 *62:61 0.000493839
79 *61:65 *62:65 0.000449812
80 *61:95 *62:67 0
81 *61:95 *62:71 0
82 *61:95 *62:85 0
83 *61:141 *286:11 0
84 *61:171 *62:99 0
85 *61:171 *62:103 0
86 *61:171 *329:9 0
87 *61:187 *317:19 0
88 *61:217 *315:5 0
89 *61:251 *62:150 0
90 *61:279 *313:16 0.0010109
91 *61:283 *313:16 6.21751e-05
92 *61:348 *62:227 5.7487e-05
93 *61:350 *62:229 0.00223887
94 *61:350 *62:233 0.0014073
95 *61:378 *62:233 0.000280039
96 *61:378 *62:247 0.000923422
97 *61:378 *310:11 0
98 *61:398 *348:s5 0.000285176
99 *61:398 *326:13 2.02794e-05
100 *61:425 *310:7 3.20746e-05
101 *61:427 *309:11 0
102 *61:439 *276:9 7.86057e-05
103 *61:465 *62:287 0
104 *61:465 *62:303 0
105 *61:492 *62:303 0
106 *61:492 *291:14 0.000126925
107 *61:494 *62:303 0
108 *61:494 *62:307 0
109 *61:504 *62:307 8.13261e-05
110 *61:504 *62:325 7.0351e-05
111 *61:504 *323:16 2.06725e-05
112 *340:s3 *61:169 0.000804668
113 *341:s3 *61:101 0.00085207
114 *342:s3 *342:s4 0.00113149
115 *342:s3 *61:65 0.000636816
116 *345:s3 *345:s4 0.000373959
117 *346:s3 *61:492 0.000363013
118 *30:13 *344:s4 0.000388307
119 *30:13 *61:35 0.00056654
120 *41:17 *344:s4 0.00210366
121 *52:15 *344:s4 7.94589e-06
122 *52:76 *61:59 0
123 *52:78 *61:61 0
124 *52:84 *61:65 0
125 *52:142 *61:171 5.59239e-05
126 *52:150 *61:169 0.000493233
127 *52:213 *61:225 0
128 *52:213 *61:251 0
129 *52:243 *61:253 0.00683179
130 *52:283 *61:307 0
131 *52:370 *61:378 0.000684315
132 *52:402 *61:439 0.00307097
133 *52:425 *61:439 0.000450823
134 *52:429 *61:494 0.000105716
135 *52:452 *61:494 0.0059714
136 *52:452 *61:504 0.000560692
137 *52:456 *345:s4 2.40453e-05
138 *52:456 *61:504 0.000233215
139 *52:482 *337:s4 0.000110307
140 *52:482 *61:523 0.00322634
*RES
1 io_in[3] *61:5 211.791 
2 *61:5 *61:7 3.41 
3 *61:7 *61:9 245.411 
4 *61:9 *61:11 3.41 
5 *61:11 *344:s4 25.3621 
6 *61:11 *61:35 5.69107 
7 *61:35 *61:37 78.5982 
8 *61:37 *61:39 4.5 
9 *61:39 *343:s4 18.6964 
10 *61:39 *61:59 27.64 
11 *61:59 *61:61 94.8393 