*SPEF "ieee 1481-1999"
*DESIGN "user_project_wrapper"
*DATE "11:11:11 Fri 11 11, 1111"
*VENDOR "OpenRCX"
*PROGRAM "Parallel Extraction"
*VERSION "1.0"
*DESIGN_FLOW "NAME_SCOPE LOCAL" "PIN_CAP NONE"
*DIVIDER /
*DELIMITER :
*BUS_DELIMITER []
*T_UNIT 1 NS
*C_UNIT 1 PF
*R_UNIT 1 OHM
*L_UNIT 1 HENRY

*NAME_MAP
*1 analog_io[0]
*2 analog_io[10]
*3 analog_io[11]
*4 analog_io[12]
*5 analog_io[13]
*6 analog_io[14]
*7 analog_io[15]
*8 analog_io[16]
*9 analog_io[17]
*10 analog_io[18]
*11 analog_io[19]
*12 analog_io[1]
*13 analog_io[20]
*14 analog_io[21]
*15 analog_io[22]
*16 analog_io[23]
*17 analog_io[24]
*18 analog_io[25]
*19 analog_io[26]
*20 analog_io[27]
*21 analog_io[28]
*22 analog_io[2]
*23 analog_io[3]
*24 analog_io[4]
*25 analog_io[5]
*26 analog_io[6]
*27 analog_io[7]
*28 analog_io[8]
*29 analog_io[9]
*30 io_in[0]
*31 io_in[10]
*32 io_in[11]
*33 io_in[12]
*34 io_in[13]
*35 io_in[14]
*36 io_in[15]
*37 io_in[16]
*38 io_in[17]
*39 io_in[18]
*40 io_in[19]
*41 io_in[1]
*42 io_in[20]
*43 io_in[21]
*44 io_in[22]
*45 io_in[23]
*46 io_in[24]
*47 io_in[25]
*48 io_in[26]
*49 io_in[27]
*50 io_in[28]
*51 io_in[29]
*52 io_in[2]
*53 io_in[30]
*54 io_in[31]
*55 io_in[32]
*56 io_in[33]
*57 io_in[34]
*58 io_in[35]
*59 io_in[36]
*60 io_in[37]
*61 io_in[3]
*62 io_in[4]
*63 io_in[5]
*64 io_in[6]
*65 io_in[7]
*66 io_in[8]
*67 io_in[9]
*68 io_oeb[0]
*69 io_oeb[10]
*70 io_oeb[11]
*71 io_oeb[12]
*72 io_oeb[13]
*73 io_oeb[14]
*74 io_oeb[15]
*75 io_oeb[16]
*76 io_oeb[17]
*77 io_oeb[18]
*78 io_oeb[19]
*79 io_oeb[1]
*80 io_oeb[20]
*81 io_oeb[21]
*82 io_oeb[22]
*83 io_oeb[23]
*84 io_oeb[24]
*85 io_oeb[25]
*86 io_oeb[26]
*87 io_oeb[27]
*88 io_oeb[28]
*89 io_oeb[29]
*90 io_oeb[2]
*91 io_oeb[30]
*92 io_oeb[31]
*93 io_oeb[32]
*94 io_oeb[33]
*95 io_oeb[34]
*96 io_oeb[35]
*97 io_oeb[36]
*98 io_oeb[37]
*99 io_oeb[3]
*100 io_oeb[4]
*101 io_oeb[5]
*102 io_oeb[6]
*103 io_oeb[7]
*104 io_oeb[8]
*105 io_oeb[9]
*106 io_out[0]
*107 io_out[10]
*108 io_out[11]
*109 io_out[12]
*110 io_out[13]
*111 io_out[14]
*112 io_out[15]
*113 io_out[16]
*114 io_out[17]
*115 io_out[18]
*116 io_out[19]
*117 io_out[1]
*118 io_out[20]
*119 io_out[21]
*120 io_out[22]
*121 io_out[23]
*122 io_out[24]
*123 io_out[25]
*124 io_out[26]
*125 io_out[27]
*126 io_out[28]
*127 io_out[29]
*128 io_out[2]
*129 io_out[30]
*130 io_out[31]
*131 io_out[32]
*132 io_out[33]
*133 io_out[34]
*134 io_out[35]
*135 io_out[36]
*136 io_out[37]
*137 io_out[3]
*138 io_out[4]
*139 io_out[5]
*140 io_out[6]
*141 io_out[7]
*142 io_out[8]
*143 io_out[9]
*146 wb_clk_i
*147 wb_rst_i
*148 wbs_ack_o
*149 wbs_adr_i[0]
*150 wbs_adr_i[10]
*151 wbs_adr_i[11]
*152 wbs_adr_i[12]
*153 wbs_adr_i[13]
*154 wbs_adr_i[14]
*155 wbs_adr_i[15]
*156 wbs_adr_i[16]
*157 wbs_adr_i[17]
*158 wbs_adr_i[18]
*159 wbs_adr_i[19]
*160 wbs_adr_i[1]
*161 wbs_adr_i[20]
*162 wbs_adr_i[21]
*163 wbs_adr_i[22]
*164 wbs_adr_i[23]
*165 wbs_adr_i[24]
*166 wbs_adr_i[25]
*167 wbs_adr_i[26]
*168 wbs_adr_i[27]
*169 wbs_adr_i[28]
*170 wbs_adr_i[29]
*171 wbs_adr_i[2]
*172 wbs_adr_i[30]
*173 wbs_adr_i[31]
*174 wbs_adr_i[3]
*175 wbs_adr_i[4]
*176 wbs_adr_i[5]
*177 wbs_adr_i[6]
*178 wbs_adr_i[7]
*179 wbs_adr_i[8]
*180 wbs_adr_i[9]
*181 wbs_cyc_i
*182 wbs_dat_i[0]
*183 wbs_dat_i[10]
*184 wbs_dat_i[11]
*185 wbs_dat_i[12]
*186 wbs_dat_i[13]
*187 wbs_dat_i[14]
*188 wbs_dat_i[15]
*189 wbs_dat_i[16]
*190 wbs_dat_i[17]
*191 wbs_dat_i[18]
*192 wbs_dat_i[19]
*193 wbs_dat_i[1]
*194 wbs_dat_i[20]
*195 wbs_dat_i[21]
*196 wbs_dat_i[22]
*197 wbs_dat_i[23]
*198 wbs_dat_i[24]
*199 wbs_dat_i[25]
*200 wbs_dat_i[26]
*201 wbs_dat_i[27]
*202 wbs_dat_i[28]
*203 wbs_dat_i[29]
*204 wbs_dat_i[2]
*205 wbs_dat_i[30]
*206 wbs_dat_i[31]
*207 wbs_dat_i[3]
*208 wbs_dat_i[4]
*209 wbs_dat_i[5]
*210 wbs_dat_i[6]
*211 wbs_dat_i[7]
*212 wbs_dat_i[8]
*213 wbs_dat_i[9]
*214 wbs_dat_o[0]
*215 wbs_dat_o[10]
*216 wbs_dat_o[11]
*217 wbs_dat_o[12]
*218 wbs_dat_o[13]
*219 wbs_dat_o[14]
*220 wbs_dat_o[15]
*221 wbs_dat_o[16]
*222 wbs_dat_o[17]
*223 wbs_dat_o[18]
*224 wbs_dat_o[19]
*225 wbs_dat_o[1]
*226 wbs_dat_o[20]
*227 wbs_dat_o[21]
*228 wbs_dat_o[22]
*229 wbs_dat_o[23]
*230 wbs_dat_o[24]
*231 wbs_dat_o[25]
*232 wbs_dat_o[26]
*233 wbs_dat_o[27]
*234 wbs_dat_o[28]
*235 wbs_dat_o[29]
*236 wbs_dat_o[2]
*237 wbs_dat_o[30]
*238 wbs_dat_o[31]
*239 wbs_dat_o[3]
*240 wbs_dat_o[4]
*241 wbs_dat_o[5]
*242 wbs_dat_o[6]
*243 wbs_dat_o[7]
*244 wbs_dat_o[8]
*245 wbs_dat_o[9]
*246 wbs_sel_i[0]
*247 wbs_sel_i[1]
*248 wbs_sel_i[2]
*249 wbs_sel_i[3]
*250 wbs_stb_i
*251 wbs_we_i
*252 x1\[0\]
*253 x1\[10\]
*254 x1\[11\]
*255 x1\[12\]
*256 x1\[13\]
*257 x1\[14\]
*258 x1\[15\]
*259 x1\[1\]
*260 x1\[2\]
*261 x1\[3\]
*262 x1\[4\]
*263 x1\[5\]
*264 x1\[6\]
*265 x1\[7\]
*266 x1\[8\]
*267 x1\[9\]
*268 x2\[0\]
*269 x2\[10\]
*270 x2\[11\]
*271 x2\[12\]
*272 x2\[13\]
*273 x2\[14\]
*274 x2\[15\]
*275 x2\[1\]
*276 x2\[2\]
*277 x2\[3\]
*278 x2\[4\]
*279 x2\[5\]
*280 x2\[6\]
*281 x2\[7\]
*282 x2\[8\]
*283 x2\[9\]
*284 x3\[0\]
*285 x3\[10\]
*286 x3\[11\]
*287 x3\[12\]
*288 x3\[13\]
*289 x3\[14\]
*290 x3\[15\]
*291 x3\[1\]
*292 x3\[2\]
*293 x3\[3\]
*294 x3\[4\]
*295 x3\[5\]
*296 x3\[6\]
*297 x3\[7\]
*298 x3\[8\]
*299 x3\[9\]
*300 x4\[0\]
*301 x4\[10\]
*302 x4\[11\]
*303 x4\[12\]
*304 x4\[13\]
*305 x4\[14\]
*306 x4\[15\]
*307 x4\[1\]
*308 x4\[2\]
*309 x4\[3\]
*310 x4\[4\]
*311 x4\[5\]
*312 x4\[6\]
*313 x4\[7\]
*314 x4\[8\]
*315 x4\[9\]
*316 x5\[0\]
*317 x5\[10\]
*318 x5\[11\]
*319 x5\[12\]
*320 x5\[13\]
*321 x5\[14\]
*322 x5\[15\]
*323 x5\[1\]
*324 x5\[2\]
*325 x5\[3\]
*326 x5\[4\]
*327 x5\[5\]
*328 x5\[6\]
*329 x5\[7\]
*330 x5\[8\]
*331 x5\[9\]
*332 mprj1
*333 mprj2
*334 mprj3
*335 mprj4
*336 mprj5
*337 ro1
*338 ro10
*339 ro11
*340 ro12
*341 ro13
*342 ro14
*343 ro15
*344 ro16
*345 ro2
*346 ro3
*347 ro4
*348 ro5
*349 ro6
*350 ro7
*351 ro8
*352 ro9

*PORTS
analog_io[0] I
analog_io[10] I
analog_io[11] I
analog_io[12] I
analog_io[13] I
analog_io[14] I
analog_io[15] I
analog_io[16] I
analog_io[17] I
analog_io[18] I
analog_io[19] I
analog_io[1] I
analog_io[20] I
analog_io[21] I
analog_io[22] I
analog_io[23] I
analog_io[24] I
analog_io[25] I
analog_io[26] I
analog_io[27] I
analog_io[28] I
analog_io[2] I
analog_io[3] I
analog_io[4] I
analog_io[5] I
analog_io[6] I
analog_io[7] I
analog_io[8] I
analog_io[9] I
io_in[0] I
io_in[10] I
io_in[11] I
io_in[12] I
io_in[13] I
io_in[14] I
io_in[15] I
io_in[16] I
io_in[17] I
io_in[18] I
io_in[19] I
io_in[1] I
io_in[20] I
io_in[21] I
io_in[22] I
io_in[23] I
io_in[24] I
io_in[25] I
io_in[26] I
io_in[27] I
io_in[28] I
io_in[29] I
io_in[2] I
io_in[30] I
io_in[31] I
io_in[32] I
io_in[33] I
io_in[34] I
io_in[35] I
io_in[36] I
io_in[37] I
io_in[3] I
io_in[4] I
io_in[5] I
io_in[6] I
io_in[7] I
io_in[8] I
io_in[9] I
io_oeb[0] O
io_oeb[10] O
io_oeb[11] O
io_oeb[12] O
io_oeb[13] O
io_oeb[14] O
io_oeb[15] O
io_oeb[16] O
io_oeb[17] O
io_oeb[18] O
io_oeb[19] O
io_oeb[1] O
io_oeb[20] O
io_oeb[21] O
io_oeb[22] O
io_oeb[23] O
io_oeb[24] O
io_oeb[25] O
io_oeb[26] O
io_oeb[27] O
io_oeb[28] O
io_oeb[29] O
io_oeb[2] O
io_oeb[30] O
io_oeb[31] O
io_oeb[32] O
io_oeb[33] O
io_oeb[34] O
io_oeb[35] O
io_oeb[36] O
io_oeb[37] O
io_oeb[3] O
io_oeb[4] O
io_oeb[5] O
io_oeb[6] O
io_oeb[7] O
io_oeb[8] O
io_oeb[9] O
io_out[0] O
io_out[10] O
io_out[11] O
io_out[12] O
io_out[13] O
io_out[14] O
io_out[15] O
io_out[16] O
io_out[17] O
io_out[18] O
io_out[19] O
io_out[1] O
io_out[20] O
io_out[21] O
io_out[22] O
io_out[23] O
io_out[24] O
io_out[25] O
io_out[26] O
io_out[27] O
io_out[28] O
io_out[29] O
io_out[2] O
io_out[30] O
io_out[31] O
io_out[32] O
io_out[33] O
io_out[34] O
io_out[35] O
io_out[36] O
io_out[37] O
io_out[3] O
io_out[4] O
io_out[5] O
io_out[6] O
io_out[7] O
io_out[8] O
io_out[9] O
wb_clk_i I
wb_rst_i I
wbs_ack_o O
wbs_adr_i[0] I
wbs_adr_i[10] I
wbs_adr_i[11] I
wbs_adr_i[12] I
wbs_adr_i[13] I
wbs_adr_i[14] I
wbs_adr_i[15] I
wbs_adr_i[16] I
wbs_adr_i[17] I
wbs_adr_i[18] I
wbs_adr_i[19] I
wbs_adr_i[1] I
wbs_adr_i[20] I
wbs_adr_i[21] I
wbs_adr_i[22] I
wbs_adr_i[23] I
wbs_adr_i[24] I
wbs_adr_i[25] I
wbs_adr_i[26] I
wbs_adr_i[27] I
wbs_adr_i[28] I
wbs_adr_i[29] I
wbs_adr_i[2] I
wbs_adr_i[30] I
wbs_adr_i[31] I
wbs_adr_i[3] I
wbs_adr_i[4] I
wbs_adr_i[5] I
wbs_adr_i[6] I
wbs_adr_i[7] I
wbs_adr_i[8] I
wbs_adr_i[9] I
wbs_cyc_i I
wbs_dat_i[0] I
wbs_dat_i[10] I
wbs_dat_i[11] I
wbs_dat_i[12] I
wbs_dat_i[13] I
wbs_dat_i[14] I
wbs_dat_i[15] I
wbs_dat_i[16] I
wbs_dat_i[17] I
wbs_dat_i[18] I
wbs_dat_i[19] I
wbs_dat_i[1] I
wbs_dat_i[20] I
wbs_dat_i[21] I
wbs_dat_i[22] I
wbs_dat_i[23] I
wbs_dat_i[24] I
wbs_dat_i[25] I
wbs_dat_i[26] I
wbs_dat_i[27] I
wbs_dat_i[28] I
wbs_dat_i[29] I
wbs_dat_i[2] I
wbs_dat_i[30] I
wbs_dat_i[31] I
wbs_dat_i[3] I
wbs_dat_i[4] I
wbs_dat_i[5] I
wbs_dat_i[6] I
wbs_dat_i[7] I
wbs_dat_i[8] I
wbs_dat_i[9] I
wbs_dat_o[0] O
wbs_dat_o[10] O
wbs_dat_o[11] O
wbs_dat_o[12] O
wbs_dat_o[13] O
wbs_dat_o[14] O
wbs_dat_o[15] O
wbs_dat_o[16] O
wbs_dat_o[17] O
wbs_dat_o[18] O
wbs_dat_o[19] O
wbs_dat_o[1] O
wbs_dat_o[20] O
wbs_dat_o[21] O
wbs_dat_o[22] O
wbs_dat_o[23] O
wbs_dat_o[24] O
wbs_dat_o[25] O
wbs_dat_o[26] O
wbs_dat_o[27] O
wbs_dat_o[28] O
wbs_dat_o[29] O
wbs_dat_o[2] O
wbs_dat_o[30] O
wbs_dat_o[31] O
wbs_dat_o[3] O
wbs_dat_o[4] O
wbs_dat_o[5] O
wbs_dat_o[6] O
wbs_dat_o[7] O
wbs_dat_o[8] O
wbs_dat_o[9] O
wbs_sel_i[0] I
wbs_sel_i[1] I
wbs_sel_i[2] I
wbs_sel_i[3] I
wbs_stb_i I
wbs_we_i I

*D_NET *30 0.337665
*CONN
*P io_in[0] I
*I *337:s1 I *D sky130_osu_ring_oscillator_mpr2aa_8_b0r1
*I *352:s1 I *D sky130_osu_ring_oscillator_mpr2aa_8_b0r2
*I *345:s1 I *D sky130_osu_ring_oscillator_mpr2at_8_b0r1
*I *346:s1 I *D sky130_osu_ring_oscillator_mpr2ca_8_b0r1
*I *347:s1 I *D sky130_osu_ring_oscillator_mpr2ct_8_b0r1
*I *348:s1 I *D sky130_osu_ring_oscillator_mpr2ea_8_b0r1
*I *349:s1 I *D sky130_osu_ring_oscillator_mpr2et_8_b0r1
*I *350:s1 I *D sky130_osu_ring_oscillator_mpr2xa_8_b0r1
*I *351:s1 I *D sky130_osu_ring_oscillator_mpr2ya_8_b0r1
*I *338:s1 I *D sky130_osu_ring_oscillator_mpr2at_8_b0r2
*I *339:s1 I *D sky130_osu_ring_oscillator_mpr2ca_8_b0r2
*I *340:s1 I *D sky130_osu_ring_oscillator_mpr2ct_8_b0r2
*I *341:s1 I *D sky130_osu_ring_oscillator_mpr2ea_8_b0r2
*I *342:s1 I *D sky130_osu_ring_oscillator_mpr2et_8_b0r2
*I *343:s1 I *D sky130_osu_ring_oscillator_mpr2xa_8_b0r2
*I *344:s1 I *D sky130_osu_ring_oscillator_mpr2ya_8_b0r2
*CAP
1 io_in[0] 0.000910578
2 *337:s1 0.000487703
3 *352:s1 0.00110282
4 *345:s1 0.000717205
5 *346:s1 0.00456234
6 *347:s1 0.000385922
7 *348:s1 0
8 *349:s1 0
9 *350:s1 0
10 *351:s1 0.000427589
11 *338:s1 0.000504891
12 *339:s1 0.00170591
13 *340:s1 0.000230814
14 *341:s1 0.000156807
15 *342:s1 0
16 *343:s1 0.000411364
17 *344:s1 0
18 *30:353 0.00377746
19 *30:351 0.00328976
20 *30:349 0.000593805
21 *30:308 0.00452123
22 *30:306 0.00457083
23 *30:289 0.00585359
24 *30:265 0.00651725
25 *30:258 0.000640512
26 *30:250 0.0100184
27 *30:243 0.000719766
28 *30:235 0.0098998
29 *30:228 0.00113512
30 *30:212 0.0106289
31 *30:193 0.00836496
32 *30:191 0.00683837
33 *30:178 0.000963892
34 *30:168 0.00794473
35 *30:166 0.00540078
36 *30:133 0.00519138
37 *30:131 0.00436551
38 *30:115 0.00468926
39 *30:113 0.00481024
40 *30:94 0.00147514
41 *30:86 0.00581885
42 *30:79 0.000719538
43 *30:71 0.00970514
44 *30:69 0.00524203
45 *30:52 0.00192891
46 *30:48 0.00281306
47 *30:41 0.000997763
48 *30:23 0.00411815
49 *30:13 0.0361958
50 *30:11 0.0353374
51 *30:9 0.0392808
52 *30:7 0.0401914
53 *338:s1 *41:186 4.98398e-05
54 *338:s1 *41:192 8.95759e-05
55 *339:s1 *63:61 0
56 *340:s1 *340:s2 0.000208514
57 *343:s1 *63:224 2.50838e-05
58 *346:s1 *260:7 0
59 *347:s1 *347:start 1.24298e-05
60 *351:s1 *351:s2 0.00072354
61 *351:s1 *41:239 0.000275472
62 *352:s1 *352:s2 0
63 *352:s1 *63:92 1.45671e-05
64 *30:13 *344:s4 0
65 *30:13 *41:19 0
66 *30:13 *61:13 0
67 *30:13 *62:27 0.000772761
68 *30:23 *41:19 0
69 *30:23 *41:43 0.00176066
70 *30:41 *41:45 2.75733e-06
71 *30:41 *63:226 0
72 *30:48 *41:45 0.00198921
73 *30:48 *63:224 0
74 *30:48 *63:226 0
75 *30:52 *41:51 0.00144183
76 *30:52 *63:224 0
77 *30:69 *41:51 0.00082545
78 *30:69 *41:55 0.000201337
79 *30:71 *41:57 0
80 *30:79 *342:start 5.5792e-05
81 *30:86 *41:57 0
82 *30:86 *41:83 0
83 *30:94 *341:s2 0
84 *30:115 *254:15 0
85 *30:131 *340:s2 7.88558e-05
86 *30:133 *253:8 0
87 *30:166 *339:s2 0.000119254
88 *30:166 *41:164 0.000457963
89 *30:166 *63:68 0.000935699
90 *30:168 *41:164 0
91 *30:178 *41:186 0.000858071
92 *30:178 *41:205 0
93 *30:178 *63:80 0.000798432
94 *30:191 *41:164 0
95 *30:191 *41:205 0
96 *30:191 *41:207 0.0073459
97 *30:191 *63:80 0
98 *30:193 *41:207 0.000597358
99 *30:193 *41:235 0.00773518
100 *30:193 *63:92 0
101 *30:212 *41:249 0
102 *30:228 *41:255 6.96344e-05
103 *30:228 *41:272 0.00157023
104 *30:228 *52:285 0.000161701
105 *30:235 *41:274 0
106 *30:243 *349:start 5.5792e-05
107 *30:250 *41:274 0
108 *30:250 *41:300 0
109 *30:258 *348:start 0
110 *30:258 *41:324 0
111 *30:265 *41:300 0
112 *30:265 *41:331 0
113 *30:289 *347:s2 0
114 *30:289 *41:331 0
115 *30:308 *346:s2 0
116 *30:308 *259:8 0
117 *30:349 *345:start 0
118 *30:353 *337:start 0.000192048
119 *30:353 *41:380 0
120 *30:353 *41:402 0
121 *30:353 *63:194 0.00207715
*RES
1 io_in[0] *30:7 11.0763 
2 *30:7 *30:9 909.378 
3 *30:9 *30:11 8 
4 *30:11 *30:13 121.514 
5 *30:13 *30:23 12.2541 
6 *30:23 *30:41 35.2157 
7 *30:41 *344:s1 15 
8 *30:23 *30:48 72.2514 
9 *30:48 *30:52 18.9846 
10 *30:52 *343:s1 46.5705 
11 *30:52 *30:69 28.9935 
12 *30:69 *30:71 98.9211 
13 *30:71 *30:79 30.6134 
14 *30:79 *342:s1 23 
15 *30:71 *30:86 109.133 
16 *30:86 *30:94 11.6867 
17 *30:94 *341:s1 25.1876 
18 *30:94 *30:113 8.79707 
19 *30:113 *30:115 105.612 
20 *30:115 *340:s1 17.8586 
21 *340:s1 *30:131 18.5214 
22 *30:131 *30:133 97.1604 
23 *30:133 *339:s1 42.5543 
24 *339:s1 *30:166 48.8063 
25 *30:166 *30:168 107.901 
26 *30:168 *30:178 41.924 
27 *30:178 *338:s1 35.2473 
28 *30:168 *30:191 99.5943 
29 *30:191 *30:193 106.171 
30 *30:193 *351:s1 28.3245 
31 *30:193 *30:212 116.528 
32 *30:212 *30:228 48.1993 
33 *30:228 *350:s1 23 
34 *30:212 *30:235 103.147 
35 *30:235 *30:243 30.6186 
36 *30:243 *349:s1 23 
37 *30:235 *30:250 108.957 
38 *30:250 *30:258 28.3037 
39 *30:258 *348:s1 23 
40 *30:250 *30:265 107.901 
41 *30:265 *347:s1 22.8921 
42 *30:265 *30:289 28.917 
43 *30:289 *346:s1 101.189 
44 *346:s1 *30:306 16.6757 
45 *30:306 *30:308 101.562 
46 *30:308 *345:s1 3.05536 
47 *30:191 *352:s1 24.7003 
48 *345:s1 *30:349 35.9982 
49 *30:349 *30:351 15 
50 *30:351 *30:353 95.9279 
51 *30:353 *337:s1 48.1189 
*END

*D_NET *41 0.361231
*CONN
*P io_in[1] I
*I *343:s2 I *D sky130_osu_ring_oscillator_mpr2xa_8_b0r2
*I *351:s2 I *D sky130_osu_ring_oscillator_mpr2ya_8_b0r1
*I *337:s2 I *D sky130_osu_ring_oscillator_mpr2aa_8_b0r1
*I *345:s2 I *D sky130_osu_ring_oscillator_mpr2at_8_b0r1
*I *346:s2 I *D sky130_osu_ring_oscillator_mpr2ca_8_b0r1
*I *347:s2 I *D sky130_osu_ring_oscillator_mpr2ct_8_b0r1
*I *348:s2 I *D sky130_osu_ring_oscillator_mpr2ea_8_b0r1
*I *349:s2 I *D sky130_osu_ring_oscillator_mpr2et_8_b0r1
*I *350:s2 I *D sky130_osu_ring_oscillator_mpr2xa_8_b0r1
*I *352:s2 I *D sky130_osu_ring_oscillator_mpr2aa_8_b0r2
*I *338:s2 I *D sky130_osu_ring_oscillator_mpr2at_8_b0r2
*I *339:s2 I *D sky130_osu_ring_oscillator_mpr2ca_8_b0r2
*I *340:s2 I *D sky130_osu_ring_oscillator_mpr2ct_8_b0r2
*I *341:s2 I *D sky130_osu_ring_oscillator_mpr2ea_8_b0r2
*I *342:s2 I *D sky130_osu_ring_oscillator_mpr2et_8_b0r2
*I *344:s2 I *D sky130_osu_ring_oscillator_mpr2ya_8_b0r2
*CAP
1 io_in[1] 0.0334944
2 *343:s2 0.0023837
3 *351:s2 0.00102859
4 *337:s2 0.0019876
5 *345:s2 0.00235088
6 *346:s2 0.00187388
7 *347:s2 0.00222641
8 *348:s2 0
9 *349:s2 7.00143e-05
10 *350:s2 3.43132e-05
11 *352:s2 0.00238044
12 *338:s2 0
13 *339:s2 0.00107074
14 *340:s2 0.000292206
15 *341:s2 0.00218613
16 *342:s2 0.00252896
17 *344:s2 0.000627232
18 *41:402 0.00615016
19 *41:380 0.00819215
20 *41:376 0.00390898
21 *41:353 0.00806899
22 *41:331 0.009873
23 *41:324 0.00123987
24 *41:316 0.00166239
25 *41:300 0.0076913
26 *41:292 0.00261527
27 *41:274 0.0100786
28 *41:272 0.00458922
29 *41:255 0.00107866
30 *41:251 0.00463397
31 *41:249 0.00394185
32 *41:239 0.00216773
33 *41:235 0.00282169
34 *41:207 0.00780768
35 *41:205 0.00325541
36 *41:192 0.00129222
37 *41:186 0.00171226
38 *41:164 0.00497735
39 *41:137 0.00891751
40 *41:123 0.00116299
41 *41:115 0.00798554
42 *41:83 0.00917058
43 *41:57 0.00994062
44 *41:55 0.00421885
45 *41:51 0.00360336
46 *41:45 0.00301836
47 *41:43 0.00317967
48 *41:19 0.00418595
49 *41:13 0.00705285
50 *41:11 0.00443012
51 *41:9 0.0257565
52 *41:7 0.0257293
53 *41:5 0.0334944
54 *41:9 *52:9 0
55 *41:13 *52:9 0
56 *41:13 *62:27 0
57 *41:19 *344:s3 0
58 *41:19 *344:s4 0.000579222
59 *41:51 *63:207 0.00118629
60 *41:57 *63:19 0.00178389
61 *41:57 *63:31 0.000211914
62 *41:83 *63:31 0.00230077
63 *41:83 *63:43 0.000179076
64 *41:115 *63:43 0.00181144
65 *41:115 *63:47 0.000715999
66 *41:137 *63:47 0.000166217
67 *41:137 *63:59 0.00105287
68 *41:137 *63:61 0.00184753
69 *41:164 *63:61 1.89643e-05
70 *41:164 *63:68 0.00222811
71 *41:164 *63:80 2.93072e-05
72 *41:186 *338:start 3.40641e-05
73 *41:186 *63:80 8.44886e-05
74 *41:205 *63:80 0.00011142
75 *41:249 *52:275 2.42241e-05
76 *41:249 *63:96 8.15886e-05
77 *41:249 *63:112 0.000271502
78 *41:251 *52:277 0.00386542
79 *41:251 *63:114 0
80 *41:255 *350:start 2.45549e-06
81 *41:272 *52:277 0.00027264
82 *41:272 *63:132 0
83 *41:274 *63:134 0.00223311
84 *41:274 *63:146 0.000260919
85 *41:300 *63:146 0.00221573
86 *41:300 *63:158 2.97444e-05
87 *41:316 *348:start 1.12796e-05
88 *41:316 *63:146 5.75756e-06
89 *41:316 *63:158 0.000403126
90 *41:324 *348:start 5.5792e-05
91 *41:331 *63:158 0.00225177
92 *41:331 *63:170 0.000225323
93 *41:353 *63:170 0.00234161
94 *41:353 *63:182 0.000304516
95 *41:376 *63:182 0.00149146
96 *41:380 *63:182 0
97 *338:s1 *41:186 4.98398e-05
98 *338:s1 *41:192 8.95759e-05
99 *340:s1 *340:s2 0.000208514
100 *351:s1 *351:s2 0.00072354
101 *351:s1 *41:239 0.000275472
102 *352:s1 *352:s2 0
103 *30:13 *41:19 0
104 *30:23 *41:19 0
105 *30:23 *41:43 0.00176066
106 *30:41 *41:45 2.75733e-06
107 *30:48 *41:45 0.00198921
108 *30:52 *41:51 0.00144183
109 *30:69 *41:51 0.00082545
110 *30:69 *41:55 0.000201337
111 *30:71 *41:57 0
112 *30:86 *41:57 0
113 *30:86 *41:83 0
114 *30:94 *341:s2 0
115 *30:131 *340:s2 7.88558e-05
116 *30:166 *339:s2 0.000119254
117 *30:166 *41:164 0.000457963
118 *30:168 *41:164 0
119 *30:178 *41:186 0.000858071
120 *30:178 *41:205 0
121 *30:191 *41:164 0
122 *30:191 *41:205 0
123 *30:191 *41:207 0.0073459
124 *30:193 *41:207 0.000597358
125 *30:193 *41:235 0.00773518
126 *30:212 *41:249 0
127 *30:228 *41:255 6.96344e-05
128 *30:228 *41:272 0.00157023
129 *30:235 *41:274 0
130 *30:250 *41:274 0
131 *30:250 *41:300 0
132 *30:258 *41:324 0
133 *30:265 *41:300 0
134 *30:265 *41:331 0
135 *30:289 *347:s2 0
136 *30:289 *41:331 0
137 *30:308 *346:s2 0
138 *30:353 *41:380 0
139 *30:353 *41:402 0
*RES
1 io_in[1] *41:5 115.046 
2 *41:5 *41:7 8 
3 *41:7 *41:9 596.468 
4 *41:9 *41:11 0.621429 
5 *41:11 *41:13 100.361 
6 *41:13 *41:19 25.8448 
7 *41:19 *344:s2 28.35 
8 *41:19 *41:43 25.7166 
9 *41:43 *41:45 72.2514 
10 *41:45 *41:51 40.8943 
11 *41:51 *41:55 10.0309 
12 *41:55 *41:57 104.379 
13 *41:57 *342:s2 48.5487 
14 *41:57 *41:83 107.196 
15 *41:83 *341:s2 48.6627 
16 *41:83 *41:115 96.8082 
17 *41:115 *41:123 48.8293 
18 *41:123 *340:s2 22.4934 
19 *41:115 *41:137 111.422 
20 *41:137 *339:s2 39.8986 
21 *41:137 *41:164 121.81 
22 *41:164 *41:186 46.7404 
23 *41:186 *41:192 44.8493 
24 *41:192 *338:s2 15 
25 *41:164 *41:205 22.4364 
26 *41:205 *41:207 100.858 
27 *41:207 *352:s2 47.6292 
28 *41:207 *41:235 98.2168 
29 *41:235 *41:239 18.48 
30 *41:239 *41:249 44.9727 
31 *41:249 *41:251 97.5125 
32 *41:251 *41:255 38.9664 
33 *41:255 *350:s2 30.6525 
34 *41:251 *41:272 26.4513 
35 *41:272 *41:274 113.535 
36 *41:274 *41:292 48.577 
37 *41:292 *349:s2 1.48107 
38 *41:274 *41:300 107.196 
39 *41:300 *41:316 42.1859 
40 *41:316 *41:324 42.7261 
41 *41:324 *348:s2 15 
42 *41:300 *41:331 107.196 
43 *41:331 *347:s2 46.3615 
44 *41:331 *41:353 114.239 
45 *41:353 *346:s2 49.0785 
46 *41:353 *41:376 64.38 
47 *41:376 *41:380 38.9221 
48 *41:380 *345:s2 28.1498 
49 *41:380 *41:402 95.9279 
50 *41:402 *337:s2 39.5007 
51 *41:239 *351:s2 26.5402 
52 *41:51 *343:s2 44.6766 
*END

*D_NET *52 0.391455
*CONN
*P io_in[2] I
*I *351:s3 I *D sky130_osu_ring_oscillator_mpr2ya_8_b0r1
*I *337:s3 I *D sky130_osu_ring_oscillator_mpr2aa_8_b0r1
*I *345:s3 I *D sky130_osu_ring_oscillator_mpr2at_8_b0r1
*I *346:s3 I *D sky130_osu_ring_oscillator_mpr2ca_8_b0r1
*I *347:s3 I *D sky130_osu_ring_oscillator_mpr2ct_8_b0r1
*I *348:s3 I *D sky130_osu_ring_oscillator_mpr2ea_8_b0r1
*I *349:s3 I *D sky130_osu_ring_oscillator_mpr2et_8_b0r1
*I *350:s3 I *D sky130_osu_ring_oscillator_mpr2xa_8_b0r1
*I *352:s3 I *D sky130_osu_ring_oscillator_mpr2aa_8_b0r2
*I *338:s3 I *D sky130_osu_ring_oscillator_mpr2at_8_b0r2
*I *339:s3 I *D sky130_osu_ring_oscillator_mpr2ca_8_b0r2
*I *340:s3 I *D sky130_osu_ring_oscillator_mpr2ct_8_b0r2
*I *341:s3 I *D sky130_osu_ring_oscillator_mpr2ea_8_b0r2
*I *342:s3 I *D sky130_osu_ring_oscillator_mpr2et_8_b0r2
*I *343:s3 I *D sky130_osu_ring_oscillator_mpr2xa_8_b0r2
*I *344:s3 I *D sky130_osu_ring_oscillator_mpr2ya_8_b0r2
*CAP
1 io_in[2] 0.0325752
2 *351:s3 2.91765e-05
3 *337:s3 6.17009e-05
4 *345:s3 0.00148512
5 *346:s3 0.00298626
6 *347:s3 0.00264659
7 *348:s3 6.91572e-05
8 *349:s3 0.00241721
9 *350:s3 0.00048755
10 *352:s3 9.82934e-05
11 *338:s3 0.00219538
12 *339:s3 0.00269727
13 *340:s3 0.00267966
14 *341:s3 0.0028777
15 *342:s3 0.00265056
16 *343:s3 0.00277444
17 *344:s3 0.00239566
18 *52:487 0.00239719
19 *52:465 0.00555597
20 *52:453 0.00189555
21 *52:433 0.00471123
22 *52:421 0.0037501
23 *52:419 0.00284253
24 *52:396 0.00315901
25 *52:394 0.00337639
26 *52:373 0.00607247
27 *52:369 0.00285341
28 *52:361 0.00286918
29 *52:343 0.00996682
30 *52:341 0.00436288
31 *52:313 0.00272835
32 *52:309 0.00299159
33 *52:307 0.00514469
34 *52:285 0.00526045
35 *52:277 0.00530799
36 *52:275 0.00486023
37 *52:269 0.00281028
38 *52:251 0.00259147
39 *52:249 0.00172253
40 *52:243 0.0019354
41 *52:235 0.00258774
42 *52:217 0.00455179
43 *52:209 0.00314915
44 *52:189 0.00576603
45 *52:183 0.00393714
46 *52:181 0.00383106
47 *52:158 0.00324924
48 *52:156 0.00141503
49 *52:152 0.00329532
50 *52:150 0.00188029
51 *52:127 0.00289645
52 *52:123 0.00201118
53 *52:121 0.0018201
54 *52:119 0.00153514
55 *52:93 0.00843324
56 *52:91 0.00404609
57 *52:67 0.00302089
58 *52:63 0.00460144
59 *52:61 0.00467787
60 *52:33 0.0032212
61 *52:31 0.00348862
62 *52:29 0.0038876
63 *52:11 0.00279464
64 *52:9 0.0208266
65 *52:7 0.0208266
66 *52:5 0.0325752
67 *338:s3 *61:230 0.000562084
68 *342:s3 *61:107 8.29091e-05
69 *344:s3 *344:s4 1.1377e-05
70 *346:s3 *62:334 0
71 *347:s3 *61:411 0
72 *349:s3 *349:s4 0.00121061
73 *349:s3 *61:321 0.000520611
74 *349:s3 *310:13 0
75 *52:9 *62:27 0.000209482
76 *52:31 *61:39 0.00698781
77 *52:31 *62:31 4.03183e-05
78 *52:31 *62:46 0.0013944
79 *52:63 *61:107 0.00144132
80 *52:63 *258:13 0
81 *52:63 *320:20 2.29099e-05
82 *52:67 *61:107 0.000113636
83 *52:93 *61:131 0.000378113
84 *52:93 *61:133 0.000119988
85 *52:93 *62:80 0.0013277
86 *52:93 *62:82 0
87 *52:93 *62:86 0
88 *52:93 *303:11 0
89 *52:119 *61:133 0.0043601
90 *52:119 *303:11 0
91 *52:119 *329:17 0
92 *52:119 *330:13 0
93 *52:123 *61:133 0.00157767
94 *52:123 *61:165 0.00103068
95 *52:123 *329:17 0
96 *52:127 *61:165 0.000259833
97 *52:152 *61:167 0.00262146
98 *52:156 *61:167 0.000380061
99 *52:156 *62:148 0.000989248
100 *52:156 *301:19 0.000642594
101 *52:156 *317:15 8.99331e-05
102 *52:181 *62:148 0.000765335
103 *52:183 *258:13 0
104 *52:183 *316:18 0.00440781
105 *52:189 *314:17 0.000492351
106 *52:209 *61:230 0.00791874
107 *52:209 *62:206 0.000765489
108 *52:209 *298:15 0
109 *52:217 *61:240 0
110 *52:217 *62:206 7.75927e-05
111 *52:243 *62:206 0.000523279
112 *52:243 *62:208 0.00562122
113 *52:243 *296:14 0.00173831
114 *52:249 *62:208 9.03529e-05
115 *52:249 *62:228 1.07299e-05
116 *52:249 *296:14 9.66085e-05
117 *52:249 *329:15 2.37673e-05
118 *52:251 *351:s5 0.000555432
119 *52:277 *63:114 0
120 *52:277 *63:132 0
121 *52:309 *61:317 0.0039313
122 *52:309 *258:13 0
123 *52:309 *316:18 0.00466685
124 *52:309 *327:15 8.90808e-05
125 *52:313 *61:321 0.000711044
126 *52:313 *310:13 0
127 *52:343 *62:276 0
128 *52:343 *62:280 0.000325325
129 *52:343 *62:294 0.000897967
130 *52:369 *61:385 0.000136501
131 *52:369 *61:411 0.000373789
132 *52:369 *62:294 0.0073223
133 *52:369 *62:314 0.00101821
134 *52:369 *325:15 2.50841e-05
135 *52:373 *61:411 9.05577e-05
136 *52:373 *62:314 3.95806e-05
137 *52:394 *61:411 0.000450902
138 *52:394 *62:314 0.00389799
139 *52:394 *62:334 0.000779483
140 *52:419 *62:334 0
141 *52:421 *62:334 0
142 *52:421 *62:336 0.00322512
143 *52:421 *316:18 0
144 *52:433 *62:336 0.000182362
145 *52:433 *62:348 2.29099e-05
146 *52:433 *62:364 1.51945e-05
147 *52:433 *316:18 0
148 *52:433 *323:15 1.85848e-05
149 *52:453 *62:348 0
150 *52:453 *62:364 6.08484e-05
151 *52:453 *62:366 0
152 *52:465 *61:495 0.00380145
153 *52:465 *62:366 0
154 *52:487 *61:507 0.00096867
155 *30:228 *52:285 0.000161701
156 *41:9 *52:9 0
157 *41:13 *52:9 0
158 *41:19 *344:s3 0
159 *41:249 *52:275 2.42241e-05
160 *41:251 *52:277 0.00386542
161 *41:272 *52:277 0.00027264
*RES
1 io_in[2] *52:5 114.531 
2 *52:5 *52:7 8 
3 *52:7 *52:9 483.285 
4 *52:9 *52:11 8 
5 *52:11 *344:s3 17.4527 
6 *52:11 *52:29 9.42987 
7 *52:29 *52:31 117.761 
8 *52:31 *52:33 8 
9 *52:33 *343:s3 45.8287 
10 *52:33 *52:61 9.344 
11 *52:61 *52:63 107.196 
12 *52:63 *52:67 9.25813 
13 *52:67 *342:s3 43.4517 
14 *52:67 *52:91 8 
15 *52:91 *52:93 105.788 
16 *52:93 *341:s3 49.306 
17 *52:93 *52:119 55.4729 
18 *52:119 *52:121 0.621429 
19 *52:121 *52:123 58.2071 
20 *52:123 *52:127 8.8288 
21 *52:127 *340:s3 45.4921 
22 *52:127 *52:150 8 
23 *52:150 *52:152 63.5721 
24 *52:152 *52:156 44.3907 
25 *52:156 *52:158 8 
26 *52:158 *339:s3 42.4354 
27 *52:158 *52:181 10.0309 
28 *52:181 *52:183 107.901 
29 *52:183 *52:189 18.632 
30 *52:189 *338:s3 31.2069 
31 *52:189 *52:209 106.492 
32 *52:209 *52:217 19.3616 
33 *52:217 *52:235 48.3903 
34 *52:235 *352:s3 2.18536 
35 *52:217 *52:243 89.7757 
36 *52:243 *52:249 18.5732 
37 *52:249 *52:251 37.7829 
38 *52:251 *52:269 49.6224 
39 *52:269 *52:275 22.4101 
40 *52:275 *52:277 100.858 
41 *52:277 *52:285 16.8331 
42 *52:285 *350:s3 32.795 
43 *52:285 *52:307 16.2133 
44 *52:307 *52:309 114.944 
45 *52:309 *52:313 9.344 
46 *52:313 *349:s3 45.7894 
47 *52:313 *52:341 8 
48 *52:341 *52:343 105.084 
49 *52:343 *52:361 49.0198 
50 *52:361 *348:s3 1.48107 
51 *52:343 *52:369 106.161 
52 *52:369 *52:373 1.80214 
53 *52:373 *347:s3 47.2621 
54 *52:373 *52:394 114.239 
55 *52:394 *52:396 8 
56 *52:396 *346:s3 45.2725 
57 *52:396 *52:419 8.5712 
58 *52:419 *52:421 85.115 
59 *52:421 *52:433 33.4096 
60 *52:433 *52:453 35.1033 
61 *52:453 *345:s3 32.9823 
62 *52:433 *52:465 101.562 
63 *52:465 *52:487 48.6237 
64 *52:487 *337:s3 1.48107 
65 *52:251 *351:s3 0.662857 
*END

*D_NET *61 0.329669
*CONN
*P io_in[3] I
*I *352:s4 I *D sky130_osu_ring_oscillator_mpr2aa_8_b0r2
*I *337:s4 I *D sky130_osu_ring_oscillator_mpr2aa_8_b0r1
*I *345:s4 I *D sky130_osu_ring_oscillator_mpr2at_8_b0r1
*I *346:s4 I *D sky130_osu_ring_oscillator_mpr2ca_8_b0r1
*I *347:s4 I *D sky130_osu_ring_oscillator_mpr2ct_8_b0r1
*I *348:s4 I *D sky130_osu_ring_oscillator_mpr2ea_8_b0r1
*I *349:s4 I *D sky130_osu_ring_oscillator_mpr2et_8_b0r1
*I *350:s4 I *D sky130_osu_ring_oscillator_mpr2xa_8_b0r1
*I *351:s4 I *D sky130_osu_ring_oscillator_mpr2ya_8_b0r1
*I *338:s4 I *D sky130_osu_ring_oscillator_mpr2at_8_b0r2
*I *339:s4 I *D sky130_osu_ring_oscillator_mpr2ca_8_b0r2
*I *340:s4 I *D sky130_osu_ring_oscillator_mpr2ct_8_b0r2
*I *341:s4 I *D sky130_osu_ring_oscillator_mpr2ea_8_b0r2
*I *342:s4 I *D sky130_osu_ring_oscillator_mpr2et_8_b0r2
*I *343:s4 I *D sky130_osu_ring_oscillator_mpr2xa_8_b0r2
*I *344:s4 I *D sky130_osu_ring_oscillator_mpr2ya_8_b0r2
*CAP
1 io_in[3] 0.024974
2 *352:s4 0.000229709
3 *337:s4 0.000524369
4 *345:s4 0.00233175
5 *346:s4 0.00128452
6 *347:s4 0.00117151
7 *348:s4 0.00074863
8 *349:s4 0.00122243
9 *350:s4 0.000321927
10 *351:s4 0.00285868
11 *338:s4 0.000578341
12 *339:s4 0.00038338
13 *340:s4 0.00112947
14 *341:s4 0.000977011
15 *342:s4 0.0010447
16 *343:s4 0.000260427
17 *344:s4 0.00226443
18 *61:507 0.00151074
19 *61:495 0.00380201
20 *61:493 0.0041229
21 *61:449 0.00529073
22 *61:447 0.00458324
23 *61:413 0.00486775
24 *61:411 0.00473238
25 *61:400 3.96267e-06
26 *61:385 0.00317083
27 *61:383 0.00247451
28 *61:377 0.00414048
29 *61:375 0.00335093
30 *61:355 0.00130885
31 *61:351 0.00474048
32 *61:349 0.00366644
33 *61:321 0.00173332
34 *61:317 0.00196292
35 *61:315 0.00290364
36 *61:309 0.00453141
37 *61:307 0.00333112
38 *61:285 0.00112394
39 *61:281 0.00389923
40 *61:279 0.0028459
41 *61:277 0.00263121
42 *61:246 0.00457031
43 *61:244 0.00435819
44 *61:240 0.00165909
45 *61:230 0.00449393
46 *61:228 0.00355554
47 *61:204 0.0015013
48 *61:202 0.00170117
49 *61:198 0.00280572
50 *61:190 0.00467857
51 *61:173 0.00491781
52 *61:167 0.0029216
53 *61:165 0.00222581
54 *61:148 0
55 *61:133 0.00460302
56 *61:131 0.00325311
57 *61:113 0.00146852
58 *61:111 0.00312113
59 *61:109 0.00312113
60 *61:107 0.00191603
61 *61:101 0.0031181
62 *61:83 0.00224678
63 *61:81 0.00356005
64 *61:79 0.00388527
65 *61:51 0.000799399
66 *61:47 0.00111434
67 *61:39 0.00202899
68 *61:37 0.00112841
69 *61:13 0.0103305
70 *61:9 0.0204922
71 *61:7 0.0124261
72 *61:5 0.024974
73 *341:s4 *341:s5 0.000554781
74 *341:s4 *303:9 0
75 *344:s4 *62:27 0.000137717
76 *345:s4 *307:12 0
77 *346:s4 *346:s5 0.000222045
78 *347:s4 *347:s5 0
79 *348:s4 *310:7 0
80 *61:13 *62:27 1.50904e-05
81 *61:39 *62:31 0.00671423
82 *61:47 *305:10 0
83 *61:107 *258:13 0
84 *61:107 *320:20 2.11066e-05
85 *61:111 *62:80 0
86 *61:111 *62:82 0.00205594
87 *61:111 *62:86 0.00098914
88 *61:131 *341:s5 5.3304e-05
89 *61:131 *62:100 0
90 *61:131 *303:9 0
91 *61:133 *62:100 0
92 *61:165 *62:128 0
93 *61:167 *62:128 0.00743316