*SPEF "ieee 1481-1999"
*DESIGN "user_project_wrapper"
*DATE "11:11:11 Fri 11 11, 1111"
*VENDOR "OpenRCX"
*PROGRAM "Parallel Extraction"
*VERSION "1.0"
*DESIGN_FLOW "NAME_SCOPE LOCAL" "PIN_CAP NONE"
*DIVIDER /
*DELIMITER :
*BUS_DELIMITER []
*T_UNIT 1 NS
*C_UNIT 1 PF
*R_UNIT 1 OHM
*L_UNIT 1 HENRY

*NAME_MAP
*1 analog_io[0]
*2 analog_io[10]
*3 analog_io[11]
*4 analog_io[12]
*5 analog_io[13]
*6 analog_io[14]
*7 analog_io[15]
*8 analog_io[16]
*9 analog_io[17]
*10 analog_io[18]
*11 analog_io[19]
*12 analog_io[1]
*13 analog_io[20]
*14 analog_io[21]
*15 analog_io[22]
*16 analog_io[23]
*17 analog_io[24]
*18 analog_io[25]
*19 analog_io[26]
*20 analog_io[27]
*21 analog_io[28]
*22 analog_io[2]
*23 analog_io[3]
*24 analog_io[4]
*25 analog_io[5]
*26 analog_io[6]
*27 analog_io[7]
*28 analog_io[8]
*29 analog_io[9]
*30 io_in[0]
*31 io_in[10]
*32 io_in[11]
*33 io_in[12]
*34 io_in[13]
*35 io_in[14]
*36 io_in[15]
*37 io_in[16]
*38 io_in[17]
*39 io_in[18]
*40 io_in[19]
*41 io_in[1]
*42 io_in[20]
*43 io_in[21]
*44 io_in[22]
*45 io_in[23]
*46 io_in[24]
*47 io_in[25]
*48 io_in[26]
*49 io_in[27]
*50 io_in[28]
*51 io_in[29]
*52 io_in[2]
*53 io_in[30]
*54 io_in[31]
*55 io_in[32]
*56 io_in[33]
*57 io_in[34]
*58 io_in[35]
*59 io_in[36]
*60 io_in[37]
*61 io_in[3]
*62 io_in[4]
*63 io_in[5]
*64 io_in[6]
*65 io_in[7]
*66 io_in[8]
*67 io_in[9]
*68 io_oeb[0]
*69 io_oeb[10]
*70 io_oeb[11]
*71 io_oeb[12]
*72 io_oeb[13]
*73 io_oeb[14]
*74 io_oeb[15]
*75 io_oeb[16]
*76 io_oeb[17]
*77 io_oeb[18]
*78 io_oeb[19]
*79 io_oeb[1]
*80 io_oeb[20]
*81 io_oeb[21]
*82 io_oeb[22]
*83 io_oeb[23]
*84 io_oeb[24]
*85 io_oeb[25]
*86 io_oeb[26]
*87 io_oeb[27]
*88 io_oeb[28]
*89 io_oeb[29]
*90 io_oeb[2]
*91 io_oeb[30]
*92 io_oeb[31]
*93 io_oeb[32]
*94 io_oeb[33]
*95 io_oeb[34]
*96 io_oeb[35]
*97 io_oeb[36]
*98 io_oeb[37]
*99 io_oeb[3]
*100 io_oeb[4]
*101 io_oeb[5]
*102 io_oeb[6]
*103 io_oeb[7]
*104 io_oeb[8]
*105 io_oeb[9]
*106 io_out[0]
*107 io_out[10]
*108 io_out[11]
*109 io_out[12]
*110 io_out[13]
*111 io_out[14]
*112 io_out[15]
*113 io_out[16]
*114 io_out[17]
*115 io_out[18]
*116 io_out[19]
*117 io_out[1]
*118 io_out[20]
*119 io_out[21]
*120 io_out[22]
*121 io_out[23]
*122 io_out[24]
*123 io_out[25]
*124 io_out[26]
*125 io_out[27]
*126 io_out[28]
*127 io_out[29]
*128 io_out[2]
*129 io_out[30]
*130 io_out[31]
*131 io_out[32]
*132 io_out[33]
*133 io_out[34]
*134 io_out[35]
*135 io_out[36]
*136 io_out[37]
*137 io_out[3]
*138 io_out[4]
*139 io_out[5]
*140 io_out[6]
*141 io_out[7]
*142 io_out[8]
*143 io_out[9]
*146 wb_clk_i
*147 wb_rst_i
*148 wbs_ack_o
*149 wbs_adr_i[0]
*150 wbs_adr_i[10]
*151 wbs_adr_i[11]
*152 wbs_adr_i[12]
*153 wbs_adr_i[13]
*154 wbs_adr_i[14]
*155 wbs_adr_i[15]
*156 wbs_adr_i[16]
*157 wbs_adr_i[17]
*158 wbs_adr_i[18]
*159 wbs_adr_i[19]
*160 wbs_adr_i[1]
*161 wbs_adr_i[20]
*162 wbs_adr_i[21]
*163 wbs_adr_i[22]
*164 wbs_adr_i[23]
*165 wbs_adr_i[24]
*166 wbs_adr_i[25]
*167 wbs_adr_i[26]
*168 wbs_adr_i[27]
*169 wbs_adr_i[28]
*170 wbs_adr_i[29]
*171 wbs_adr_i[2]
*172 wbs_adr_i[30]
*173 wbs_adr_i[31]
*174 wbs_adr_i[3]
*175 wbs_adr_i[4]
*176 wbs_adr_i[5]
*177 wbs_adr_i[6]
*178 wbs_adr_i[7]
*179 wbs_adr_i[8]
*180 wbs_adr_i[9]
*181 wbs_cyc_i
*182 wbs_dat_i[0]
*183 wbs_dat_i[10]
*184 wbs_dat_i[11]
*185 wbs_dat_i[12]
*186 wbs_dat_i[13]
*187 wbs_dat_i[14]
*188 wbs_dat_i[15]
*189 wbs_dat_i[16]
*190 wbs_dat_i[17]
*191 wbs_dat_i[18]
*192 wbs_dat_i[19]
*193 wbs_dat_i[1]
*194 wbs_dat_i[20]
*195 wbs_dat_i[21]
*196 wbs_dat_i[22]
*197 wbs_dat_i[23]
*198 wbs_dat_i[24]
*199 wbs_dat_i[25]
*200 wbs_dat_i[26]
*201 wbs_dat_i[27]
*202 wbs_dat_i[28]
*203 wbs_dat_i[29]
*204 wbs_dat_i[2]
*205 wbs_dat_i[30]
*206 wbs_dat_i[31]
*207 wbs_dat_i[3]
*208 wbs_dat_i[4]
*209 wbs_dat_i[5]
*210 wbs_dat_i[6]
*211 wbs_dat_i[7]
*212 wbs_dat_i[8]
*213 wbs_dat_i[9]
*214 wbs_dat_o[0]
*215 wbs_dat_o[10]
*216 wbs_dat_o[11]
*217 wbs_dat_o[12]
*218 wbs_dat_o[13]
*219 wbs_dat_o[14]
*220 wbs_dat_o[15]
*221 wbs_dat_o[16]
*222 wbs_dat_o[17]
*223 wbs_dat_o[18]
*224 wbs_dat_o[19]
*225 wbs_dat_o[1]
*226 wbs_dat_o[20]
*227 wbs_dat_o[21]
*228 wbs_dat_o[22]
*229 wbs_dat_o[23]
*230 wbs_dat_o[24]
*231 wbs_dat_o[25]
*232 wbs_dat_o[26]
*233 wbs_dat_o[27]
*234 wbs_dat_o[28]
*235 wbs_dat_o[29]
*236 wbs_dat_o[2]
*237 wbs_dat_o[30]
*238 wbs_dat_o[31]
*239 wbs_dat_o[3]
*240 wbs_dat_o[4]
*241 wbs_dat_o[5]
*242 wbs_dat_o[6]
*243 wbs_dat_o[7]
*244 wbs_dat_o[8]
*245 wbs_dat_o[9]
*246 wbs_sel_i[0]
*247 wbs_sel_i[1]
*248 wbs_sel_i[2]
*249 wbs_sel_i[3]
*250 wbs_stb_i
*251 wbs_we_i
*252 x1\[0\]
*253 x1\[10\]
*254 x1\[11\]
*255 x1\[12\]
*256 x1\[13\]
*257 x1\[14\]
*258 x1\[15\]
*259 x1\[1\]
*260 x1\[2\]
*261 x1\[3\]
*262 x1\[4\]
*263 x1\[5\]
*264 x1\[6\]
*265 x1\[7\]
*266 x1\[8\]
*267 x1\[9\]
*268 x2\[0\]
*269 x2\[10\]
*270 x2\[11\]
*271 x2\[12\]
*272 x2\[13\]
*273 x2\[14\]
*274 x2\[15\]
*275 x2\[1\]
*276 x2\[2\]
*277 x2\[3\]
*278 x2\[4\]
*279 x2\[5\]
*280 x2\[6\]
*281 x2\[7\]
*282 x2\[8\]
*283 x2\[9\]
*284 x3\[0\]
*285 x3\[10\]
*286 x3\[11\]
*287 x3\[12\]
*288 x3\[13\]
*289 x3\[14\]
*290 x3\[15\]
*291 x3\[1\]
*292 x3\[2\]
*293 x3\[3\]
*294 x3\[4\]
*295 x3\[5\]
*296 x3\[6\]
*297 x3\[7\]
*298 x3\[8\]
*299 x3\[9\]
*300 x4\[0\]
*301 x4\[10\]
*302 x4\[11\]
*303 x4\[12\]
*304 x4\[13\]
*305 x4\[14\]
*306 x4\[15\]
*307 x4\[1\]
*308 x4\[2\]
*309 x4\[3\]
*310 x4\[4\]
*311 x4\[5\]
*312 x4\[6\]
*313 x4\[7\]
*314 x4\[8\]
*315 x4\[9\]
*316 x5\[0\]
*317 x5\[10\]
*318 x5\[11\]
*319 x5\[12\]
*320 x5\[13\]
*321 x5\[14\]
*322 x5\[15\]
*323 x5\[1\]
*324 x5\[2\]
*325 x5\[3\]
*326 x5\[4\]
*327 x5\[5\]
*328 x5\[6\]
*329 x5\[7\]
*330 x5\[8\]
*331 x5\[9\]
*332 mprj1
*333 mprj2
*334 mprj3
*335 mprj4
*336 mprj5
*337 ro1
*338 ro10
*339 ro11
*340 ro12
*341 ro13
*342 ro14
*343 ro15
*344 ro16
*345 ro2
*346 ro3
*347 ro4
*348 ro5
*349 ro6
*350 ro7
*351 ro8
*352 ro9

*PORTS
analog_io[0] I
analog_io[10] I
analog_io[11] I
analog_io[12] I
analog_io[13] I
analog_io[14] I
analog_io[15] I
analog_io[16] I
analog_io[17] I
analog_io[18] I
analog_io[19] I
analog_io[1] I
analog_io[20] I
analog_io[21] I
analog_io[22] I
analog_io[23] I
analog_io[24] I
analog_io[25] I
analog_io[26] I
analog_io[27] I
analog_io[28] I
analog_io[2] I
analog_io[3] I
analog_io[4] I
analog_io[5] I
analog_io[6] I
analog_io[7] I
analog_io[8] I
analog_io[9] I
io_in[0] I
io_in[10] I
io_in[11] I
io_in[12] I
io_in[13] I
io_in[14] I
io_in[15] I
io_in[16] I
io_in[17] I
io_in[18] I
io_in[19] I
io_in[1] I
io_in[20] I
io_in[21] I
io_in[22] I
io_in[23] I
io_in[24] I
io_in[25] I
io_in[26] I
io_in[27] I
io_in[28] I
io_in[29] I
io_in[2] I
io_in[30] I
io_in[31] I
io_in[32] I
io_in[33] I
io_in[34] I
io_in[35] I
io_in[36] I
io_in[37] I
io_in[3] I
io_in[4] I
io_in[5] I
io_in[6] I
io_in[7] I
io_in[8] I
io_in[9] I
io_oeb[0] O
io_oeb[10] O
io_oeb[11] O
io_oeb[12] O
io_oeb[13] O
io_oeb[14] O
io_oeb[15] O
io_oeb[16] O
io_oeb[17] O
io_oeb[18] O
io_oeb[19] O
io_oeb[1] O
io_oeb[20] O
io_oeb[21] O
io_oeb[22] O
io_oeb[23] O
io_oeb[24] O
io_oeb[25] O
io_oeb[26] O
io_oeb[27] O
io_oeb[28] O
io_oeb[29] O
io_oeb[2] O
io_oeb[30] O
io_oeb[31] O
io_oeb[32] O
io_oeb[33] O
io_oeb[34] O
io_oeb[35] O
io_oeb[36] O
io_oeb[37] O
io_oeb[3] O
io_oeb[4] O
io_oeb[5] O
io_oeb[6] O
io_oeb[7] O
io_oeb[8] O
io_oeb[9] O
io_out[0] O
io_out[10] O
io_out[11] O
io_out[12] O
io_out[13] O
io_out[14] O
io_out[15] O
io_out[16] O
io_out[17] O
io_out[18] O
io_out[19] O
io_out[1] O
io_out[20] O
io_out[21] O
io_out[22] O
io_out[23] O
io_out[24] O
io_out[25] O
io_out[26] O
io_out[27] O
io_out[28] O
io_out[29] O
io_out[2] O
io_out[30] O
io_out[31] O
io_out[32] O
io_out[33] O
io_out[34] O
io_out[35] O
io_out[36] O
io_out[37] O
io_out[3] O
io_out[4] O
io_out[5] O
io_out[6] O
io_out[7] O
io_out[8] O
io_out[9] O
wb_clk_i I
wb_rst_i I
wbs_ack_o O
wbs_adr_i[0] I
wbs_adr_i[10] I
wbs_adr_i[11] I
wbs_adr_i[12] I
wbs_adr_i[13] I
wbs_adr_i[14] I
wbs_adr_i[15] I
wbs_adr_i[16] I
wbs_adr_i[17] I
wbs_adr_i[18] I
wbs_adr_i[19] I
wbs_adr_i[1] I
wbs_adr_i[20] I
wbs_adr_i[21] I
wbs_adr_i[22] I
wbs_adr_i[23] I
wbs_adr_i[24] I
wbs_adr_i[25] I
wbs_adr_i[26] I
wbs_adr_i[27] I
wbs_adr_i[28] I
wbs_adr_i[29] I
wbs_adr_i[2] I
wbs_adr_i[30] I
wbs_adr_i[31] I
wbs_adr_i[3] I
wbs_adr_i[4] I
wbs_adr_i[5] I
wbs_adr_i[6] I
wbs_adr_i[7] I
wbs_adr_i[8] I
wbs_adr_i[9] I
wbs_cyc_i I
wbs_dat_i[0] I
wbs_dat_i[10] I
wbs_dat_i[11] I
wbs_dat_i[12] I
wbs_dat_i[13] I
wbs_dat_i[14] I
wbs_dat_i[15] I
wbs_dat_i[16] I
wbs_dat_i[17] I
wbs_dat_i[18] I
wbs_dat_i[19] I
wbs_dat_i[1] I
wbs_dat_i[20] I
wbs_dat_i[21] I
wbs_dat_i[22] I
wbs_dat_i[23] I
wbs_dat_i[24] I
wbs_dat_i[25] I
wbs_dat_i[26] I
wbs_dat_i[27] I
wbs_dat_i[28] I
wbs_dat_i[29] I
wbs_dat_i[2] I
wbs_dat_i[30] I
wbs_dat_i[31] I
wbs_dat_i[3] I
wbs_dat_i[4] I
wbs_dat_i[5] I
wbs_dat_i[6] I
wbs_dat_i[7] I
wbs_dat_i[8] I
wbs_dat_i[9] I
wbs_dat_o[0] O
wbs_dat_o[10] O
wbs_dat_o[11] O
wbs_dat_o[12] O
wbs_dat_o[13] O
wbs_dat_o[14] O
wbs_dat_o[15] O
wbs_dat_o[16] O
wbs_dat_o[17] O
wbs_dat_o[18] O
wbs_dat_o[19] O
wbs_dat_o[1] O
wbs_dat_o[20] O
wbs_dat_o[21] O
wbs_dat_o[22] O
wbs_dat_o[23] O
wbs_dat_o[24] O
wbs_dat_o[25] O
wbs_dat_o[26] O
wbs_dat_o[27] O
wbs_dat_o[28] O
wbs_dat_o[29] O
wbs_dat_o[2] O
wbs_dat_o[30] O
wbs_dat_o[31] O
wbs_dat_o[3] O
wbs_dat_o[4] O
wbs_dat_o[5] O
wbs_dat_o[6] O
wbs_dat_o[7] O
wbs_dat_o[8] O
wbs_dat_o[9] O
wbs_sel_i[0] I
wbs_sel_i[1] I
wbs_sel_i[2] I
wbs_sel_i[3] I
wbs_stb_i I
wbs_we_i I

*D_NET *30 0.402614
*CONN
*P io_in[0] I
*I *344:s1 I *D sky130_osu_ring_oscillator_mpr2ya_8_b0r2
*I *351:s1 I *D sky130_osu_ring_oscillator_mpr2ya_8_b0r1
*I *350:s1 I *D sky130_osu_ring_oscillator_mpr2xa_8_b0r1
*I *345:s1 I *D sky130_osu_ring_oscillator_mpr2at_8_b0r1
*I *337:s1 I *D sky130_osu_ring_oscillator_mpr2aa_8_b0r1
*I *346:s1 I *D sky130_osu_ring_oscillator_mpr2ca_8_b0r1
*I *347:s1 I *D sky130_osu_ring_oscillator_mpr2ct_8_b0r1
*I *348:s1 I *D sky130_osu_ring_oscillator_mpr2ea_8_b0r1
*I *349:s1 I *D sky130_osu_ring_oscillator_mpr2et_8_b0r1
*I *352:s1 I *D sky130_osu_ring_oscillator_mpr2aa_8_b0r2
*I *338:s1 I *D sky130_osu_ring_oscillator_mpr2at_8_b0r2
*I *339:s1 I *D sky130_osu_ring_oscillator_mpr2ca_8_b0r2
*I *340:s1 I *D sky130_osu_ring_oscillator_mpr2ct_8_b0r2
*I *341:s1 I *D sky130_osu_ring_oscillator_mpr2ea_8_b0r2
*I *342:s1 I *D sky130_osu_ring_oscillator_mpr2et_8_b0r2
*I *343:s1 I *D sky130_osu_ring_oscillator_mpr2xa_8_b0r2
*CAP
1 io_in[0] 0.0642872
2 *344:s1 0.000569948
3 *351:s1 0
4 *350:s1 0.000278789
5 *345:s1 6.93155e-06
6 *337:s1 0.000794641
7 *346:s1 0.00019531
8 *347:s1 0.000214753
9 *348:s1 0.000176016
10 *349:s1 0.000497509
11 *352:s1 0.000257836
12 *338:s1 0.0023062
13 *339:s1 0.00139172
14 *340:s1 0.000161316
15 *341:s1 0.000432981
16 *342:s1 0.000513112
17 *343:s1 0.000387167
18 *30:384 7.13007e-06
19 *30:373 0.00306511
20 *30:371 0.00376784
21 *30:355 0.00565675
22 *30:353 0.00512856
23 *30:333 0.00486797
24 *30:315 0.00501431
25 *30:307 0.00489585
26 *30:305 0.00387341
27 *30:283 0.001081
28 *30:275 0.00381065
29 *30:260 0.00418703
30 *30:252 0.00487791
31 *30:250 0.00421837
32 *30:244 0.000909051
33 *30:236 0.00386878
34 *30:234 0.00414017
35 *30:220 0.00251702
36 *30:200 0.0047953
37 *30:181 0.0038492
38 *30:175 0.00315328
39 *30:173 0.00358715
40 *30:140 0.0041442
41 *30:138 0.00305157
42 *30:110 0.00413446
43 *30:108 0.00398286
44 *30:88 0.00374235
45 *30:73 0.00422366
46 *30:65 0.00479334
47 *30:63 0.0046864
48 *30:42 0.00579937
49 *30:27 0.00701934
50 *30:25 0.00288255
51 *30:21 0.00286671
52 *30:9 0.0304869
53 *30:7 0.0287014
54 *30:5 0.0642872
55 *337:s1 *337:s2 0.000378948
56 *338:s1 *267:20 0
57 *339:s1 *253:12 0
58 *340:s1 *340:s2 0.000248574
59 *340:s1 *340:start 8.03105e-06
60 *341:s1 *341:start 8.35106e-05
61 *342:s1 *342:start 8.52883e-05
62 *343:s1 *343:start 4.90291e-05
63 *346:s1 *346:start 7.78022e-05
64 *347:s1 *347:start 4.60123e-05
65 *30:9 *344:s5 0
66 *30:9 *41:9 0.0246571
67 *30:9 *61:43 9.33771e-05
68 *30:21 *344:s3 0.0017747
69 *30:21 *41:15 0.00304586
70 *30:21 *41:41 0.000795328
71 *30:21 *62:15 0.000172684
72 *30:25 *41:41 0.000649712
73 *30:27 *41:43 0.00618667
74 *30:42 *41:43 0.00047504
75 *30:42 *41:75 0.000420327
76 *30:63 *41:85 0
77 *30:65 *255:12 0
78 *30:73 *41:115 0.000831819
79 *30:88 *41:115 0.00062926
80 *30:88 *41:145 0.00627316
81 *30:88 *41:160 2.07338e-05
82 *30:108 *41:160 0.00028146
83 *30:173 *338:s2 0.00130468
84 *30:175 *41:187 5.33602e-05
85 *30:175 *41:208 0.00692916
86 *30:181 *352:s2 0
87 *30:220 *265:12 0
88 *30:234 *41:239 0
89 *30:236 *41:274 0.00305371
90 *30:275 *41:284 0.00649683
91 *30:315 *41:314 0.000719053
92 *30:333 *41:314 0.00024039
93 *30:333 *41:330 0.00246157
94 *30:353 *346:s2 0
95 *30:353 *41:330 0.000239192
96 *30:355 *259:8 0
97 *30:371 *345:s2 0
98 *30:373 *337:s2 1.99922e-05
99 *30:373 *41:380 0.00526655
*RES
1 io_in[0] *30:5 172.517 
2 *30:5 *30:7 0.5 
3 *30:7 *30:9 649.335 
4 *30:9 *30:21 9.54147 
5 *30:21 *30:25 2.22773 
6 *30:25 *30:27 69.0825 
7 *30:27 *343:s1 12.96 
8 *30:27 *30:42 80.43 
9 *30:42 *342:s1 12.93 
10 *30:42 *30:63 6.2533 
11 *30:63 *30:65 66.405 
12 *30:65 *30:73 12.3733 
13 *30:73 *341:s1 11.5763 
14 *30:73 *30:88 77.37 
15 *30:88 *340:s1 5.7725 
16 *30:88 *30:108 6.2533 
17 *30:108 *30:110 55.725 
18 *30:110 *339:s1 19.6763 
19 *339:s1 *30:138 3.74268 
20 *30:138 *30:140 49.635 
21 *30:140 *338:s1 25.8075 
22 *338:s1 *30:173 13.1916 
23 *30:173 *30:175 78.135 
24 *30:175 *30:181 2.14507 
25 *30:181 *352:s1 8.1975 
26 *30:181 *30:200 56.715 
27 *30:200 *30:220 27.9847 
28 *30:220 *30:234 11.2193 
29 *30:234 *30:236 72.525 
30 *30:236 *30:244 2.0694 
31 *30:244 *30:250 0.691267 
32 *30:250 *30:252 73.035 
33 *30:252 *30:260 5.6014 
34 *30:260 *349:s1 5.17543 
35 *30:260 *30:275 80.685 
36 *30:275 *30:283 2.53553 
37 *30:283 *348:s1 2.62828 
38 *30:283 *30:305 0.749533 
39 *30:305 *30:307 68.955 
40 *30:307 *30:315 11.0983 
41 *30:315 *347:s1 6.0425 
42 *30:315 *30:333 78.645 
43 *30:333 *346:s1 5.6225 
44 *30:333 *30:353 5.9181 
45 *30:353 *30:355 75.585 
46 *30:355 *30:371 18.6123 
47 *30:371 *30:373 61.305 
48 *30:373 *337:s1 17.2175 
49 *337:s1 *30:384 0.1275 
50 *30:355 *345:s1 0.1275 
51 *30:244 *350:s1 4.1683 
52 *30:220 *351:s1 1.6 
53 *30:21 *344:s1 14.535 
*END

*D_NET *41 0.423383
*CONN
*P io_in[1] I
*I *350:s2 I *D sky130_osu_ring_oscillator_mpr2xa_8_b0r1
*I *349:s2 I *D sky130_osu_ring_oscillator_mpr2et_8_b0r1
*I *347:s2 I *D sky130_osu_ring_oscillator_mpr2ct_8_b0r1
*I *337:s2 I *D sky130_osu_ring_oscillator_mpr2aa_8_b0r1
*I *345:s2 I *D sky130_osu_ring_oscillator_mpr2at_8_b0r1
*I *346:s2 I *D sky130_osu_ring_oscillator_mpr2ca_8_b0r1
*I *348:s2 I *D sky130_osu_ring_oscillator_mpr2ea_8_b0r1
*I *351:s2 I *D sky130_osu_ring_oscillator_mpr2ya_8_b0r1
*I *352:s2 I *D sky130_osu_ring_oscillator_mpr2aa_8_b0r2
*I *338:s2 I *D sky130_osu_ring_oscillator_mpr2at_8_b0r2
*I *339:s2 I *D sky130_osu_ring_oscillator_mpr2ca_8_b0r2
*I *340:s2 I *D sky130_osu_ring_oscillator_mpr2ct_8_b0r2
*I *341:s2 I *D sky130_osu_ring_oscillator_mpr2ea_8_b0r2
*I *342:s2 I *D sky130_osu_ring_oscillator_mpr2et_8_b0r2
*I *343:s2 I *D sky130_osu_ring_oscillator_mpr2xa_8_b0r2
*I *344:s2 I *D sky130_osu_ring_oscillator_mpr2ya_8_b0r2
*CAP
1 io_in[1] 0.0642374
2 *350:s2 0.00170819
3 *349:s2 0.00223874
4 *347:s2 0.000372419
5 *337:s2 0.00244921
6 *345:s2 0.00171148
7 *346:s2 0.00188386
8 *348:s2 0.00211622
9 *351:s2 0.000210012
10 *352:s2 0.00174868
11 *338:s2 0.00143251
12 *339:s2 0.00183372
13 *340:s2 0.000899321
14 *341:s2 0.00200082
15 *342:s2 0.00256716
16 *343:s2 0.00165362
17 *344:s2 0.00038043
18 *41:380 0.00499748
19 *41:359 0.00688302
20 *41:355 0.00441927
21 *41:330 0.0064732
22 *41:324 0.00546684
23 *41:318 0.00452297
24 *41:314 0.00541213
25 *41:284 0.00912032
26 *41:282 0.00306903
27 *41:280 0.00256048
28 *41:276 0.00473564
29 *41:274 0.00761435
30 *41:260 0.00727606
31 *41:239 0.00410923
32 *41:233 0.004727
33 *41:231 0.00406369
34 *41:208 0.00557546
35 *41:187 0.00811475
36 *41:185 0.0043402
37 *41:160 0.00731522
38 *41:145 0.00824552
39 *41:115 0.00849357
40 *41:85 0.00701885
41 *41:77 0.0047741
42 *41:75 0.00476169
43 *41:43 0.00470623
44 *41:41 0.00371311
45 *41:15 0.00285212
46 *41:9 0.0210183
47 *41:7 0.0196346
48 *41:5 0.0642374
49 *350:s2 *280:12 0
50 *41:9 *61:17 0.000101735
51 *41:15 *344:s4 0.00175083
52 *41:15 *61:17 0.000130904
53 *41:15 *62:15 2.54397e-05
54 *337:s1 *337:s2 0.000378948
55 *340:s1 *340:s2 0.000248574
56 *30:9 *41:9 0.0246571
57 *30:21 *41:15 0.00304586
58 *30:21 *41:41 0.000795328
59 *30:25 *41:41 0.000649712
60 *30:27 *41:43 0.00618667
61 *30:42 *41:43 0.00047504
62 *30:42 *41:75 0.000420327
63 *30:63 *41:85 0
64 *30:73 *41:115 0.000831819
65 *30:88 *41:115 0.00062926
66 *30:88 *41:145 0.00627316
67 *30:88 *41:160 2.07338e-05
68 *30:108 *41:160 0.00028146
69 *30:173 *338:s2 0.00130468
70 *30:175 *41:187 5.33602e-05
71 *30:175 *41:208 0.00692916
72 *30:181 *352:s2 0
73 *30:234 *41:239 0
74 *30:236 *41:274 0.00305371
75 *30:275 *41:284 0.00649683
76 *30:315 *41:314 0.000719053
77 *30:333 *41:314 0.00024039
78 *30:333 *41:330 0.00246157
79 *30:353 *346:s2 0
80 *30:353 *41:330 0.000239192
81 *30:371 *345:s2 0
82 *30:373 *337:s2 1.99922e-05
83 *30:373 *41:380 0.00526655
*RES
1 io_in[1] *41:5 172.401 
2 *41:5 *41:7 0.5 
3 *41:7 *41:9 499.905 
4 *41:9 *41:15 7.6804 
5 *41:15 *344:s2 10.795 
6 *41:15 *41:41 6.40207 
7 *41:41 *41:43 75.585 
8 *41:43 *343:s2 14.5458 
9 *41:43 *41:75 6.4322 
10 *41:75 *41:77 78.645 
11 *41:77 *41:85 3.99873 
12 *41:85 *342:s2 18.0819 
13 *41:85 *41:115 75.585 
14 *41:115 *341:s2 14.8826 
15 *41:115 *41:145 70.1025 
16 *41:145 *340:s2 22.74 
17 *41:145 *41:160 85.1475 
18 *41:160 *339:s2 9.57807 
19 *41:160 *41:185 10.8 
20 *41:185 *41:187 67.89 
21 *41:187 *338:s2 13.0078 
22 *41:187 *41:208 82.725 
23 *41:208 *352:s2 16.3834 
24 *41:208 *41:231 15.75 
25 *41:231 *41:233 57.84 
26 *41:233 *41:239 4.76707 
27 *41:239 *351:s2 5.5925 
28 *41:239 *41:260 42.945 
29 *41:260 *41:274 45.8793 
30 *41:274 *41:276 80.175 
31 *41:276 *41:280 1.35373 
32 *41:280 *41:282 0.5 
33 *41:282 *41:284 80.685 
34 *41:284 *348:s2 15.3481 
35 *41:284 *41:314 72.525 
36 *41:314 *41:318 4.15053 
37 *41:318 *41:324 49.555 
38 *41:324 *41:330 38.4255 
39 *41:330 *346:s2 11.0188 
40 *41:330 *41:355 31.47 
41 *41:355 *41:359 47.505 
42 *41:359 *345:s2 13.6413 
43 *41:359 *41:380 65.895 
44 *41:380 *337:s2 23.6408 
45 *41:318 *347:s2 1.49117 
46 *41:280 *349:s2 13.1566 
47 *41:260 *350:s2 31.0725 
*END

*D_NET *52 0.43456
*CONN
*P io_in[2] I
*I *337:s3 I *D sky130_osu_ring_oscillator_mpr2aa_8_b0r1
*I *345:s3 I *D sky130_osu_ring_oscillator_mpr2at_8_b0r1
*I *346:s3 I *D sky130_osu_ring_oscillator_mpr2ca_8_b0r1
*I *347:s3 I *D sky130_osu_ring_oscillator_mpr2ct_8_b0r1
*I *348:s3 I *D sky130_osu_ring_oscillator_mpr2ea_8_b0r1
*I *349:s3 I *D sky130_osu_ring_oscillator_mpr2et_8_b0r1
*I *350:s3 I *D sky130_osu_ring_oscillator_mpr2xa_8_b0r1
*I *351:s3 I *D sky130_osu_ring_oscillator_mpr2ya_8_b0r1
*I *352:s3 I *D sky130_osu_ring_oscillator_mpr2aa_8_b0r2
*I *338:s3 I *D sky130_osu_ring_oscillator_mpr2at_8_b0r2
*I *339:s3 I *D sky130_osu_ring_oscillator_mpr2ca_8_b0r2
*I *340:s3 I *D sky130_osu_ring_oscillator_mpr2ct_8_b0r2
*I *341:s3 I *D sky130_osu_ring_oscillator_mpr2ea_8_b0r2
*I *342:s3 I *D sky130_osu_ring_oscillator_mpr2et_8_b0r2
*I *343:s3 I *D sky130_osu_ring_oscillator_mpr2xa_8_b0r2
*I *344:s3 I *D sky130_osu_ring_oscillator_mpr2ya_8_b0r2
*CAP
1 io_in[2] 0.0535066
2 *337:s3 0.00218719
3 *345:s3 0.00174046
4 *346:s3 0.00273301
5 *347:s3 0.00239858
6 *348:s3 0.00222881
7 *349:s3 0.000391376
8 *350:s3 0.00216174
9 *351:s3 0.00220523
10 *352:s3 0.00215651
11 *338:s3 0.00186991
12 *339:s3 0.00180715
13 *340:s3 0.00199638
14 *341:s3 0.00261732
15 *342:s3 0.00243477
16 *343:s3 0.00187786
17 *344:s3 0.00176664
18 *52:469 0.00515868
19 *52:467 0.00297148
20 *52:444 0.00211298
21 *52:440 0.00340794
22 *52:417 0.00810195
23 *52:415 0.00375192
24 *52:392 0.00634333
25 *52:390 0.00313816
26 *52:364 0.00503411
27 *52:356 0.00493804
28 *52:352 0.00365039
29 *52:330 0.00312327
30 *52:324 0.00446427
31 *52:322 0.00325197
32 *52:286 0.00670225
33 *52:259 0.00927175
34 *52:254 8.13327e-06
35 *52:235 0.00571811
36 *52:231 0.00339707
37 *52:207 0.00512819
38 *52:199 0.00266993
39 *52:197 0.00302838
40 *52:172 0.00593361
41 *52:170 0.00434162
42 *52:147 0.00442728
43 *52:145 0.00387344
44 *52:117 0.00584399
45 *52:113 0.00407615
46 *52:111 0.00344107
47 *52:77 0.00683382
48 *52:75 0.00500174
49 *52:39 0.00698121
50 *52:37 0.00421639
51 *52:13 0.0107302
52 *52:9 0.0283365
53 *52:7 0.0193729
54 *52:5 0.0535066
55 *338:s3 *314:14 0.000439381
56 *339:s3 *339:s4 0.00198369
57 *339:s3 *61:206 0.000236295
58 *339:s3 *62:186 0.000416561
59 *340:s3 *340:s4 0.00166693
60 *340:s3 *61:158 0.000299507
61 *341:s3 *61:124 0
62 *342:s3 *61:118 0.000433005
63 *343:s3 *61:49 0.00149499
64 *344:s3 *62:15 0.000479624
65 *345:s3 *61:441 0.00115573
66 *346:s3 *61:401 0
67 *346:s3 *62:367 0
68 *346:s3 *291:18 0.000358821
69 *347:s3 *347:s4 0
70 *347:s3 *61:374 0
71 *348:s3 *348:s4 9.70105e-06
72 *351:s3 *61:266 0
73 *352:s3 *352:s4 0
74 *52:13 *62:15 0.0258744
75 *52:39 *61:43 0
76 *52:77 *62:100 0.00103136
77 *52:111 *62:100 0.000420327
78 *52:113 *271:14 0
79 *52:117 *271:14 0
80 *52:145 *271:14 0
81 *52:147 *61:158 0.00113385
82 *52:147 *271:14 0
83 *52:147 *302:15 0.000541209
84 *52:170 *61:181 0
85 *52:170 *62:164 0
86 *52:170 *271:14 0
87 *52:172 *61:181 0
88 *52:172 *271:14 0
89 *52:197 *62:188 0
90 *52:199 *62:188 0.0054334
91 *52:199 *62:208 0.000561035
92 *52:199 *271:14 2.2142e-05
93 *52:199 *313:14 0
94 *52:207 *61:226 0.000775452
95 *52:207 *62:208 0.000852564
96 *52:207 *62:210 7.80717e-05
97 *52:231 *62:210 0.00276702
98 *52:231 *62:220 0.000113328
99 *52:235 *62:220 0
100 *52:259 *61:262 0.00587197
101 *52:259 *62:220 0
102 *52:259 *62:246 0
103 *52:286 *61:308 0.00133459
104 *52:286 *62:246 0
105 *52:286 *62:268 0
106 *52:322 *61:308 0.00157277
107 *52:322 *62:268 0
108 *52:324 *61:310 0.00584939
109 *52:324 *61:334 0.000855647
110 *52:330 *61:334 0.000938574
111 *52:330 *62:307 6.30657e-06
112 *52:356 *294:12 0
113 *52:364 *61:336 0
114 *52:390 *62:321 0.000499047
115 *52:390 *62:323 0
116 *52:392 *61:370 0.00683233
117 *52:392 *62:323 0
118 *52:392 *62:341 0.000388023
119 *52:415 *61:370 0.000420327
120 *52:415 *62:341 0.00139543
121 *52:417 *62:347 0
122 *52:440 *62:369 0.00570815
123 *52:444 *61:441 0.000105932
124 *52:444 *62:396 0.000137812
125 *52:469 *337:s4 0.000806929
126 *52:469 *61:443 0.00311528
127 *30:21 *344:s3 0.0017747
*RES
1 io_in[2] *52:5 134.061 
2 *52:5 *52:7 0.5 
3 *52:7 *52:9 352.515 
4 *52:9 *52:13 38.7609 
5 *52:13 *344:s3 18.0309 
6 *52:13 *52:37 0.5 
7 *52:37 *52:39 75.075 
8 *52:39 *343:s3 16.1392 
9 *52:39 *52:75 7.481 
10 *52:75 *52:77 78.645 
11 *52:77 *342:s3 16.6603 
12 *52:77 *52:111 6.31567 
13 *52:111 *52:113 57.195 
14 *52:113 *52:117 16.395 
15 *52:117 *341:s3 15.0988 
16 *52:117 *52:145 41.985 
17 *52:145 *52:147 37.05 
18 *52:147 *340:s3 12.3367 
19 *52:147 *52:170 15.705 
20 *52:170 *52:172 62.82 
21 *52:172 *339:s3 11.4896 
22 *52:172 *52:197 11.67 
23 *52:197 *52:199 67.89 
24 *52:199 *52:207 4.5814 
25 *52:207 *338:s3 16.4903 
26 *52:207 *52:231 75.075 
27 *52:231 *52:235 7.545 
28 *52:235 *352:s3 18.3347 
29 *352:s3 *52:254 0.1425 
30 *52:235 *52:259 77.625 
31 *52:259 *351:s3 15.257 
32 *52:259 *52:286 78.135 
33 *52:286 *350:s3 13.3733 
34 *52:286 *52:322 4.9454 
35 *52:322 *52:324 75.585 
36 *52:324 *52:330 6.4568 
37 *52:330 *349:s3 5.6403 
38 *52:330 *52:352 16.41 
39 *52:352 *52:356 49.355 
40 *52:356 *52:364 18.5838 
41 *52:364 *348:s3 7.73665 
42 *52:364 *52:390 7.922 
43 *52:390 *52:392 77.115 
44 *52:392 *347:s3 13.2389 
45 *52:392 *52:415 38.265 
46 *52:415 *52:417 42.15 
47 *52:417 *346:s3 13.2736 
48 *52:417 *52:440 78.645 
49 *52:440 *52:444 1.70333 
50 *52:444 *345:s3 14.3567 
51 *52:444 *52:467 0.5 
52 *52:467 *52:469 76.605 
53 *52:469 *337:s3 11.4562 
*END

*D_NET *61 0.372973
*CONN
*P io_in[3] I
*I *350:s4 I *D sky130_osu_ring_oscillator_mpr2xa_8_b0r1
*I *337:s4 I *D sky130_osu_ring_oscillator_mpr2aa_8_b0r1
*I *345:s4 I *D sky130_osu_ring_oscillator_mpr2at_8_b0r1
*I *346:s4 I *D sky130_osu_ring_oscillator_mpr2ca_8_b0r1
*I *347:s4 I *D sky130_osu_ring_oscillator_mpr2ct_8_b0r1
*I *348:s4 I *D sky130_osu_ring_oscillator_mpr2ea_8_b0r1
*I *349:s4 I *D sky130_osu_ring_oscillator_mpr2et_8_b0r1
*I *351:s4 I *D sky130_osu_ring_oscillator_mpr2ya_8_b0r1
*I *352:s4 I *D sky130_osu_ring_oscillator_mpr2aa_8_b0r2
*I *338:s4 I *D sky130_osu_ring_oscillator_mpr2at_8_b0r2
*I *339:s4 I *D sky130_osu_ring_oscillator_mpr2ca_8_b0r2
*I *340:s4 I *D sky130_osu_ring_oscillator_mpr2ct_8_b0r2
*I *341:s4 I *D sky130_osu_ring_oscillator_mpr2ea_8_b0r2
*I *342:s4 I *D sky130_osu_ring_oscillator_mpr2et_8_b0r2
*I *343:s4 I *D sky130_osu_ring_oscillator_mpr2xa_8_b0r2
*I *344:s4 I *D sky130_osu_ring_oscillator_mpr2ya_8_b0r2
*CAP
1 io_in[3] 0.000793773
2 *350:s4 0.000976275
3 *337:s4 0.0013564
4 *345:s4 0.00225752
5 *346:s4 0.000336574
6 *347:s4 0.00169827
7 *348:s4 0.00184269
8 *349:s4 0.00126863
9 *351:s4 0.000358207
10 *352:s4 0.00170501
11 *338:s4 0.00101893
12 *339:s4 0.00111588
13 *340:s4 0.00104443
14 *341:s4 0.000514833
15 *342:s4 0.00202371
16 *343:s4 0.000442843
17 *344:s4 0.000977888
18 *61:460 0
19 *61:443 0.00359062
20 *61:441 0.00302779
21 *61:416 0.00428234
22 *61:414 0.00281839
23 *61:401 0.00127266
24 *61:397 0.00467356
25 *61:395 0.00373748
26 *61:374 0.00193677
27 *61:370 0.00306123
28 *61:368 0.00309251
29 *61:338 0.00211247
30 *61:336 0.00461862
31 *61:334 0.00544815
32 *61:310 0.00435389
33 *61:308 0.00498556
34 *61:294 0.00513471
35 *61:292 0.00326821
36 *61:266 0.00318755
37 *61:262 0.00347857
38 *61:260 0.00248882
39 *61:236 0.00228978
40 *61:228 0.00343496
41 *61:226 0.00363562
42 *61:208 0.00424496
43 *61:206 0.00272718
44 *61:183 0.00140247
45 *61:181 0.00344769
46 *61:179 0.00344769
47 *61:158 0.00314372
48 *61:142 0.00522544
49 *61:140 0.00312615
50 *61:124 0.00131721
51 *61:120 0.00473273
52 *61:118 0.00515567
53 *61:75 0.0044755
54 *61:49 0.00461275
55 *61:43 0.00486371
56 *61:41 0.00437091
57 *61:17 0.001307
58 *61:13 0.0683403
59 *61:11 0.0680112
60 *61:9 0.010852
61 *61:7 0.0116458
62 *337:s4 *300:16 2.2917e-05
63 *337:s4 *316:5 0
64 *338:s4 *338:s5 0.000385334
65 *338:s4 *315:12 3.84496e-05
66 *338:s4 *331:8 7.66388e-05
67 *342:s4 *272:12 0.000371152
68 *342:s4 *304:12 0
69 *349:s4 *311:16 0
70 *349:s4 *327:5 7.44117e-05
71 *350:s4 *264:22 0
72 *350:s4 *312:12 0
73 *61:13 *62:15 0
74 *61:17 *62:15 6.00361e-06
75 *61:43 *344:s5 0
76 *61:43 *62:39 0
77 *61:43 *62:41 0
78 *61:75 *288:10 0
79 *61:124 *341:s5 9.02938e-05
80 *61:124 *62:106 0.00017458
81 *61:158 *62:142 0
82 *61:158 *62:164 0.000160015
83 *61:158 *302:15 0.000542876
84 *61:181 *62:164 7.925e-05
85 *61:181 *62:166 0.00257294
86 *61:181 *62:170 0
87 *61:181 *62:186 0
88 *61:206 *62:186 0.000140369
89 *61:208 *330:11 0.00628808
90 *61:226 *62:208 1.95991e-05
91 *61:226 *330:11 0.000633123
92 *61:228 *62:210 0.00381219
93 *61:228 *62:220 0.000164759
94 *61:228 *311:18 0
95 *61:228 *312:14 0
96 *61:236 *62:220 0.000920154
97 *61:236 *311:18 0
98 *61:262 *62:220 0
99 *61:262 *62:228 0.000150186
100 *61:308 *62:268 0
101 *61:310 *257:26 0
102 *61:334 *257:26 0
103 *61:336 *62:309 0
104 *61:336 *62:321 0
105 *61:336 *62:323 9.9514e-05
106 *61:397 *62:341 0
107 *61:397 *62:347 0
108 *61:397 *62:367 0.000202764
109 *61:441 *62:396 0.000681363
110 *61:441 *300:18 0.000184407
111 *339:s3 *339:s4 0.00198369
112 *339:s3 *61:206 0.000236295
113 *340:s3 *340:s4 0.00166693
114 *340:s3 *61:158 0.000299507
115 *341:s3 *61:124 0
116 *342:s3 *61:118 0.000433005
117 *343:s3 *61:49 0.00149499
118 *345:s3 *61:441 0.00115573
119 *346:s3 *61:401 0
120 *347:s3 *347:s4 0
121 *347:s3 *61:374 0
122 *348:s3 *348:s4 9.70105e-06
123 *351:s3 *61:266 0
124 *352:s3 *352:s4 0
125 *30:9 *61:43 9.33771e-05
126 *41:9 *61:17 0.000101735
127 *41:15 *344:s4 0.00175083
128 *41:15 *61:17 0.000130904
129 *52:39 *61:43 0
130 *52:147 *61:158 0.00113385
131 *52:170 *61:181 0
132 *52:172 *61:181 0
133 *52:207 *61:226 0.000775452
134 *52:259 *61:262 0.00587197
135 *52:286 *61:308 0.00133459
136 *52:322 *61:308 0.00157277
137 *52:324 *61:310 0.00584939
138 *52:324 *61:334 0.000855647
139 *52:330 *61:334 0.000938574
140 *52:364 *61:336 0
141 *52:392 *61:370 0.00683233
142 *52:415 *61:370 0.000420327
143 *52:444 *61:441 0.000105932
144 *52:469 *337:s4 0.000806929
145 *52:469 *61:443 0.00311528
*RES
1 io_in[3] *61:7 2.58747 
2 *61:7 *61:9 197.475 
3 *61:9 *61:11 0.5 
4 *61:11 *61:13 170.322 
5 *61:13 *61:17 0.796733 
6 *61:17 *344:s4 13.2067 
7 *61:17 *61:41 0.5 
8 *61:41 *61:43 77.625 
9 *61:43 *61:49 3.19387 
10 *61:49 *343:s4 12.0212 
11 *61:49 *61:75 66.495 
12 *61:75 *342:s4 7.47237 
13 *342:s4 *61:118 14.9845 
14 *61:118 *61:120 70.995 
15 *61:120 *61:124 2.4608 
16 *61:124 *341:s4 3.21237 
17 *61:124 *61:140 0.5 
18 *61:140 *61:142 56.715 
19 *61:142 *61:158 31.3341 
20 *61:158 *340:s4 8.7174 
21 *61:158 *61:179 0.5 
22 *61:179 *61:181 78.645 
23 *61:181 *61:183 0.5 
24 *61:183 *339:s4 9.0556 
25 *61:183 *61:206 1.47027 
26 *61:206 *61:208 70.3575 
27 *61:208 *338:s4 21.3275 
28 *61:208 *61:226 9.8089 
29 *61:226 *61:228 76.71 
30 *61:228 *61:236 11.6541 
31 *61:236 *352:s4 20.7474 
32 *61:236 *61:260 0.5 
33 *61:260 *61:262 67.935 
34 *61:262 *61:266 2.75213 
35 *61:266 *351:s4 3.40087 
36 *61:266 *61:292 33.875 
37 *61:292 *61:294 25.965 
38 *61:294 *61:308 35.6354 
39 *61:308 *61:310 65.2575 
40 *61:310 *349:s4 26.1437 
41 *61:310 *61:334 12.8689 
42 *61:334 *61:336 83.745 
43 *61:336 *61:338 0.5 
44 *61:338 *348:s4 14.9284 
45 *61:338 *61:368 1.0624 
46 *61:368 *61:370 81.195 
47 *61:370 *61:374 1.12067 
48 *61:374 *347:s4 14.6613 
49 *61:374 *61:395 0.5 
50 *61:395 *61:397 68.445 
51 *61:397 *61:401 2.69387 
52 *61:401 *346:s4 1.39997 
53 *61:401 *61:414 0.5 
54 *61:414 *61:416 51.105 
55 *61:416 *345:s4 25.545 
56 *345:s4 *61:441 16.2193 
57 *61:441 *61:443 60.135 
58 *61:443 *337:s4 29.345 
59 *345:s4 *61:460 0.1176 
60 *61:294 *350:s4 17.3925 
*END

*D_NET *62 0.317751
*CONN
*P io_in[4] I
*I *337:s5 I *D sky130_osu_ring_oscillator_mpr2aa_8_b0r1