*SPEF "ieee 1481-1999"
*DESIGN "user_project_wrapper"
*DATE "11:11:11 Fri 11 11, 1111"
*VENDOR "OpenRCX"
*PROGRAM "Parallel Extraction"
*VERSION "1.0"
*DESIGN_FLOW "NAME_SCOPE LOCAL" "PIN_CAP NONE"
*DIVIDER /
*DELIMITER :
*BUS_DELIMITER []
*T_UNIT 1 NS
*C_UNIT 1 PF
*R_UNIT 1 OHM
*L_UNIT 1 HENRY

*NAME_MAP
*1 analog_io[0]
*2 analog_io[10]
*3 analog_io[11]
*4 analog_io[12]
*5 analog_io[13]
*6 analog_io[14]
*7 analog_io[15]
*8 analog_io[16]
*9 analog_io[17]
*10 analog_io[18]
*11 analog_io[19]
*12 analog_io[1]
*13 analog_io[20]
*14 analog_io[21]
*15 analog_io[22]
*16 analog_io[23]
*17 analog_io[24]
*18 analog_io[25]
*19 analog_io[26]
*20 analog_io[27]
*21 analog_io[28]
*22 analog_io[2]
*23 analog_io[3]
*24 analog_io[4]
*25 analog_io[5]
*26 analog_io[6]
*27 analog_io[7]
*28 analog_io[8]
*29 analog_io[9]
*30 io_in[0]
*31 io_in[10]
*32 io_in[11]
*33 io_in[12]
*34 io_in[13]
*35 io_in[14]
*36 io_in[15]
*37 io_in[16]
*38 io_in[17]
*39 io_in[18]
*40 io_in[19]
*41 io_in[1]
*42 io_in[20]
*43 io_in[21]
*44 io_in[22]
*45 io_in[23]
*46 io_in[24]
*47 io_in[25]
*48 io_in[26]
*49 io_in[27]
*50 io_in[28]
*51 io_in[29]
*52 io_in[2]
*53 io_in[30]
*54 io_in[31]
*55 io_in[32]
*56 io_in[33]
*57 io_in[34]
*58 io_in[35]
*59 io_in[36]
*60 io_in[37]
*61 io_in[3]
*62 io_in[4]
*63 io_in[5]
*64 io_in[6]
*65 io_in[7]
*66 io_in[8]
*67 io_in[9]
*68 io_oeb[0]
*69 io_oeb[10]
*70 io_oeb[11]
*71 io_oeb[12]
*72 io_oeb[13]
*73 io_oeb[14]
*74 io_oeb[15]
*75 io_oeb[16]
*76 io_oeb[17]
*77 io_oeb[18]
*78 io_oeb[19]
*79 io_oeb[1]
*80 io_oeb[20]
*81 io_oeb[21]
*82 io_oeb[22]
*83 io_oeb[23]
*84 io_oeb[24]
*85 io_oeb[25]
*86 io_oeb[26]
*87 io_oeb[27]
*88 io_oeb[28]
*89 io_oeb[29]
*90 io_oeb[2]
*91 io_oeb[30]
*92 io_oeb[31]
*93 io_oeb[32]
*94 io_oeb[33]
*95 io_oeb[34]
*96 io_oeb[35]
*97 io_oeb[36]
*98 io_oeb[37]
*99 io_oeb[3]
*100 io_oeb[4]
*101 io_oeb[5]
*102 io_oeb[6]
*103 io_oeb[7]
*104 io_oeb[8]
*105 io_oeb[9]
*106 io_out[0]
*107 io_out[10]
*108 io_out[11]
*109 io_out[12]
*110 io_out[13]
*111 io_out[14]
*112 io_out[15]
*113 io_out[16]
*114 io_out[17]
*115 io_out[18]
*116 io_out[19]
*117 io_out[1]
*118 io_out[20]
*119 io_out[21]
*120 io_out[22]
*121 io_out[23]
*122 io_out[24]
*123 io_out[25]
*124 io_out[26]
*125 io_out[27]
*126 io_out[28]
*127 io_out[29]
*128 io_out[2]
*129 io_out[30]
*130 io_out[31]
*131 io_out[32]
*132 io_out[33]
*133 io_out[34]
*134 io_out[35]
*135 io_out[36]
*136 io_out[37]
*137 io_out[3]
*138 io_out[4]
*139 io_out[5]
*140 io_out[6]
*141 io_out[7]
*142 io_out[8]
*143 io_out[9]
*146 wb_clk_i
*147 wb_rst_i
*148 wbs_ack_o
*149 wbs_adr_i[0]
*150 wbs_adr_i[10]
*151 wbs_adr_i[11]
*152 wbs_adr_i[12]
*153 wbs_adr_i[13]
*154 wbs_adr_i[14]
*155 wbs_adr_i[15]
*156 wbs_adr_i[16]
*157 wbs_adr_i[17]
*158 wbs_adr_i[18]
*159 wbs_adr_i[19]
*160 wbs_adr_i[1]
*161 wbs_adr_i[20]
*162 wbs_adr_i[21]
*163 wbs_adr_i[22]
*164 wbs_adr_i[23]
*165 wbs_adr_i[24]
*166 wbs_adr_i[25]
*167 wbs_adr_i[26]
*168 wbs_adr_i[27]
*169 wbs_adr_i[28]
*170 wbs_adr_i[29]
*171 wbs_adr_i[2]
*172 wbs_adr_i[30]
*173 wbs_adr_i[31]
*174 wbs_adr_i[3]
*175 wbs_adr_i[4]
*176 wbs_adr_i[5]
*177 wbs_adr_i[6]
*178 wbs_adr_i[7]
*179 wbs_adr_i[8]
*180 wbs_adr_i[9]
*181 wbs_cyc_i
*182 wbs_dat_i[0]
*183 wbs_dat_i[10]
*184 wbs_dat_i[11]
*185 wbs_dat_i[12]
*186 wbs_dat_i[13]
*187 wbs_dat_i[14]
*188 wbs_dat_i[15]
*189 wbs_dat_i[16]
*190 wbs_dat_i[17]
*191 wbs_dat_i[18]
*192 wbs_dat_i[19]
*193 wbs_dat_i[1]
*194 wbs_dat_i[20]
*195 wbs_dat_i[21]
*196 wbs_dat_i[22]
*197 wbs_dat_i[23]
*198 wbs_dat_i[24]
*199 wbs_dat_i[25]
*200 wbs_dat_i[26]
*201 wbs_dat_i[27]
*202 wbs_dat_i[28]
*203 wbs_dat_i[29]
*204 wbs_dat_i[2]
*205 wbs_dat_i[30]
*206 wbs_dat_i[31]
*207 wbs_dat_i[3]
*208 wbs_dat_i[4]
*209 wbs_dat_i[5]
*210 wbs_dat_i[6]
*211 wbs_dat_i[7]
*212 wbs_dat_i[8]
*213 wbs_dat_i[9]
*214 wbs_dat_o[0]
*215 wbs_dat_o[10]
*216 wbs_dat_o[11]
*217 wbs_dat_o[12]
*218 wbs_dat_o[13]
*219 wbs_dat_o[14]
*220 wbs_dat_o[15]
*221 wbs_dat_o[16]
*222 wbs_dat_o[17]
*223 wbs_dat_o[18]
*224 wbs_dat_o[19]
*225 wbs_dat_o[1]
*226 wbs_dat_o[20]
*227 wbs_dat_o[21]
*228 wbs_dat_o[22]
*229 wbs_dat_o[23]
*230 wbs_dat_o[24]
*231 wbs_dat_o[25]
*232 wbs_dat_o[26]
*233 wbs_dat_o[27]
*234 wbs_dat_o[28]
*235 wbs_dat_o[29]
*236 wbs_dat_o[2]
*237 wbs_dat_o[30]
*238 wbs_dat_o[31]
*239 wbs_dat_o[3]
*240 wbs_dat_o[4]
*241 wbs_dat_o[5]
*242 wbs_dat_o[6]
*243 wbs_dat_o[7]
*244 wbs_dat_o[8]
*245 wbs_dat_o[9]
*246 wbs_sel_i[0]
*247 wbs_sel_i[1]
*248 wbs_sel_i[2]
*249 wbs_sel_i[3]
*250 wbs_stb_i
*251 wbs_we_i
*252 x1\[0\]
*253 x1\[10\]
*254 x1\[11\]
*255 x1\[12\]
*256 x1\[13\]
*257 x1\[14\]
*258 x1\[15\]
*259 x1\[1\]
*260 x1\[2\]
*261 x1\[3\]
*262 x1\[4\]
*263 x1\[5\]
*264 x1\[6\]
*265 x1\[7\]
*266 x1\[8\]
*267 x1\[9\]
*268 x2\[0\]
*269 x2\[10\]
*270 x2\[11\]
*271 x2\[12\]
*272 x2\[13\]
*273 x2\[14\]
*274 x2\[15\]
*275 x2\[1\]
*276 x2\[2\]
*277 x2\[3\]
*278 x2\[4\]
*279 x2\[5\]
*280 x2\[6\]
*281 x2\[7\]
*282 x2\[8\]
*283 x2\[9\]
*284 x3\[0\]
*285 x3\[10\]
*286 x3\[11\]
*287 x3\[12\]
*288 x3\[13\]
*289 x3\[14\]
*290 x3\[15\]
*291 x3\[1\]
*292 x3\[2\]
*293 x3\[3\]
*294 x3\[4\]
*295 x3\[5\]
*296 x3\[6\]
*297 x3\[7\]
*298 x3\[8\]
*299 x3\[9\]
*300 x4\[0\]
*301 x4\[10\]
*302 x4\[11\]
*303 x4\[12\]
*304 x4\[13\]
*305 x4\[14\]
*306 x4\[15\]
*307 x4\[1\]
*308 x4\[2\]
*309 x4\[3\]
*310 x4\[4\]
*311 x4\[5\]
*312 x4\[6\]
*313 x4\[7\]
*314 x4\[8\]
*315 x4\[9\]
*316 x5\[0\]
*317 x5\[10\]
*318 x5\[11\]
*319 x5\[12\]
*320 x5\[13\]
*321 x5\[14\]
*322 x5\[15\]
*323 x5\[1\]
*324 x5\[2\]
*325 x5\[3\]
*326 x5\[4\]
*327 x5\[5\]
*328 x5\[6\]
*329 x5\[7\]
*330 x5\[8\]
*331 x5\[9\]
*332 mprj1
*333 mprj2
*334 mprj3
*335 mprj4
*336 mprj5
*337 ro1
*338 ro10
*339 ro11
*340 ro12
*341 ro13
*342 ro14
*343 ro15
*344 ro16
*345 ro2
*346 ro3
*347 ro4
*348 ro5
*349 ro6
*350 ro7
*351 ro8
*352 ro9

*PORTS
analog_io[0] I
analog_io[10] I
analog_io[11] I
analog_io[12] I
analog_io[13] I
analog_io[14] I
analog_io[15] I
analog_io[16] I
analog_io[17] I
analog_io[18] I
analog_io[19] I
analog_io[1] I
analog_io[20] I
analog_io[21] I
analog_io[22] I
analog_io[23] I
analog_io[24] I
analog_io[25] I
analog_io[26] I
analog_io[27] I
analog_io[28] I
analog_io[2] I
analog_io[3] I
analog_io[4] I
analog_io[5] I
analog_io[6] I
analog_io[7] I
analog_io[8] I
analog_io[9] I
io_in[0] I
io_in[10] I
io_in[11] I
io_in[12] I
io_in[13] I
io_in[14] I
io_in[15] I
io_in[16] I
io_in[17] I
io_in[18] I
io_in[19] I
io_in[1] I
io_in[20] I
io_in[21] I
io_in[22] I
io_in[23] I
io_in[24] I
io_in[25] I
io_in[26] I
io_in[27] I
io_in[28] I
io_in[29] I
io_in[2] I
io_in[30] I
io_in[31] I
io_in[32] I
io_in[33] I
io_in[34] I
io_in[35] I
io_in[36] I
io_in[37] I
io_in[3] I
io_in[4] I
io_in[5] I
io_in[6] I
io_in[7] I
io_in[8] I
io_in[9] I
io_oeb[0] O
io_oeb[10] O
io_oeb[11] O
io_oeb[12] O
io_oeb[13] O
io_oeb[14] O
io_oeb[15] O
io_oeb[16] O
io_oeb[17] O
io_oeb[18] O
io_oeb[19] O
io_oeb[1] O
io_oeb[20] O
io_oeb[21] O
io_oeb[22] O
io_oeb[23] O
io_oeb[24] O
io_oeb[25] O
io_oeb[26] O
io_oeb[27] O
io_oeb[28] O
io_oeb[29] O
io_oeb[2] O
io_oeb[30] O
io_oeb[31] O
io_oeb[32] O
io_oeb[33] O
io_oeb[34] O
io_oeb[35] O
io_oeb[36] O
io_oeb[37] O
io_oeb[3] O
io_oeb[4] O
io_oeb[5] O
io_oeb[6] O
io_oeb[7] O
io_oeb[8] O
io_oeb[9] O
io_out[0] O
io_out[10] O
io_out[11] O
io_out[12] O
io_out[13] O
io_out[14] O
io_out[15] O
io_out[16] O
io_out[17] O
io_out[18] O
io_out[19] O
io_out[1] O
io_out[20] O
io_out[21] O
io_out[22] O
io_out[23] O
io_out[24] O
io_out[25] O
io_out[26] O
io_out[27] O
io_out[28] O
io_out[29] O
io_out[2] O
io_out[30] O
io_out[31] O
io_out[32] O
io_out[33] O
io_out[34] O
io_out[35] O
io_out[36] O
io_out[37] O
io_out[3] O
io_out[4] O
io_out[5] O
io_out[6] O
io_out[7] O
io_out[8] O
io_out[9] O
wb_clk_i I
wb_rst_i I
wbs_ack_o O
wbs_adr_i[0] I
wbs_adr_i[10] I
wbs_adr_i[11] I
wbs_adr_i[12] I
wbs_adr_i[13] I
wbs_adr_i[14] I
wbs_adr_i[15] I
wbs_adr_i[16] I
wbs_adr_i[17] I
wbs_adr_i[18] I
wbs_adr_i[19] I
wbs_adr_i[1] I
wbs_adr_i[20] I
wbs_adr_i[21] I
wbs_adr_i[22] I
wbs_adr_i[23] I
wbs_adr_i[24] I
wbs_adr_i[25] I
wbs_adr_i[26] I
wbs_adr_i[27] I
wbs_adr_i[28] I
wbs_adr_i[29] I
wbs_adr_i[2] I
wbs_adr_i[30] I
wbs_adr_i[31] I
wbs_adr_i[3] I
wbs_adr_i[4] I
wbs_adr_i[5] I
wbs_adr_i[6] I
wbs_adr_i[7] I
wbs_adr_i[8] I
wbs_adr_i[9] I
wbs_cyc_i I
wbs_dat_i[0] I
wbs_dat_i[10] I
wbs_dat_i[11] I
wbs_dat_i[12] I
wbs_dat_i[13] I
wbs_dat_i[14] I
wbs_dat_i[15] I
wbs_dat_i[16] I
wbs_dat_i[17] I
wbs_dat_i[18] I
wbs_dat_i[19] I
wbs_dat_i[1] I
wbs_dat_i[20] I
wbs_dat_i[21] I
wbs_dat_i[22] I
wbs_dat_i[23] I
wbs_dat_i[24] I
wbs_dat_i[25] I
wbs_dat_i[26] I
wbs_dat_i[27] I
wbs_dat_i[28] I
wbs_dat_i[29] I
wbs_dat_i[2] I
wbs_dat_i[30] I
wbs_dat_i[31] I
wbs_dat_i[3] I
wbs_dat_i[4] I
wbs_dat_i[5] I
wbs_dat_i[6] I
wbs_dat_i[7] I
wbs_dat_i[8] I
wbs_dat_i[9] I
wbs_dat_o[0] O
wbs_dat_o[10] O
wbs_dat_o[11] O
wbs_dat_o[12] O
wbs_dat_o[13] O
wbs_dat_o[14] O
wbs_dat_o[15] O
wbs_dat_o[16] O
wbs_dat_o[17] O
wbs_dat_o[18] O
wbs_dat_o[19] O
wbs_dat_o[1] O
wbs_dat_o[20] O
wbs_dat_o[21] O
wbs_dat_o[22] O
wbs_dat_o[23] O
wbs_dat_o[24] O
wbs_dat_o[25] O
wbs_dat_o[26] O
wbs_dat_o[27] O
wbs_dat_o[28] O
wbs_dat_o[29] O
wbs_dat_o[2] O
wbs_dat_o[30] O
wbs_dat_o[31] O
wbs_dat_o[3] O
wbs_dat_o[4] O
wbs_dat_o[5] O
wbs_dat_o[6] O
wbs_dat_o[7] O
wbs_dat_o[8] O
wbs_dat_o[9] O
wbs_sel_i[0] I
wbs_sel_i[1] I
wbs_sel_i[2] I
wbs_sel_i[3] I
wbs_stb_i I
wbs_we_i I

*D_NET *30 0.395812
*CONN
*P io_in[0] I
*I *344:s1 I *D sky130_osu_ring_oscillator_mpr2ya_8_b0r2
*I *341:s1 I *D sky130_osu_ring_oscillator_mpr2ea_8_b0r2
*I *347:s1 I *D sky130_osu_ring_oscillator_mpr2ct_8_b0r1
*I *345:s1 I *D sky130_osu_ring_oscillator_mpr2at_8_b0r1
*I *337:s1 I *D sky130_osu_ring_oscillator_mpr2aa_8_b0r1
*I *346:s1 I *D sky130_osu_ring_oscillator_mpr2ca_8_b0r1
*I *348:s1 I *D sky130_osu_ring_oscillator_mpr2ea_8_b0r1
*I *349:s1 I *D sky130_osu_ring_oscillator_mpr2et_8_b0r1
*I *350:s1 I *D sky130_osu_ring_oscillator_mpr2xa_8_b0r1
*I *351:s1 I *D sky130_osu_ring_oscillator_mpr2ya_8_b0r1
*I *352:s1 I *D sky130_osu_ring_oscillator_mpr2aa_8_b0r2
*I *338:s1 I *D sky130_osu_ring_oscillator_mpr2at_8_b0r2
*I *339:s1 I *D sky130_osu_ring_oscillator_mpr2ca_8_b0r2
*I *340:s1 I *D sky130_osu_ring_oscillator_mpr2ct_8_b0r2
*I *342:s1 I *D sky130_osu_ring_oscillator_mpr2et_8_b0r2
*I *343:s1 I *D sky130_osu_ring_oscillator_mpr2xa_8_b0r2
*CAP
1 io_in[0] 0.0642872
2 *344:s1 0.000611187
3 *341:s1 0.000431604
4 *347:s1 0.000150443
5 *345:s1 0.000487709
6 *337:s1 0.00050342
7 *346:s1 0.000175019
8 *348:s1 0.00038316
9 *349:s1 0.000512502
10 *350:s1 0.000394309
11 *351:s1 0.000336187
12 *352:s1 0.000635514
13 *338:s1 0.00175946
14 *339:s1 0.000251986
15 *340:s1 0.000133169
16 *342:s1 0.000505756
17 *343:s1 0.000312089
18 *30:246 0.003107
19 *30:244 0.00267808
20 *30:240 0.000562218
21 *30:238 0.00460025
22 *30:224 0.00926629
23 *30:222 0.00902868
24 *30:207 0.00713033
25 *30:205 0.0030288
26 *30:188 0.00299518
27 *30:186 0.00285992
28 *30:165 0.00243496
29 *30:161 0.00290245
30 *30:150 0.00532863
31 *30:138 0.00657193
32 *30:136 0.00335371
33 *30:132 0.000777151
34 *30:116 0.00411822
35 *30:99 0.00508567
36 *30:87 0.00524368
37 *30:67 0.00402247
38 *30:61 0.00409673
39 *30:59 0.006203
40 *30:55 0.0041148
41 *30:42 0.00302265
42 *30:40 0.00153746
43 *30:23 0.00359927
44 *30:21 0.00312226
45 *30:13 0.00314538
46 *30:9 0.0392098
47 *30:7 0.0371261
48 *30:5 0.0642872
49 *337:s1 *337:start 0.00012182
50 *338:s1 *267:11 0
51 *342:s1 *342:start 8.35106e-05
52 *346:s1 *346:start 3.39469e-06
53 *349:s1 *349:start 4.77757e-05
54 *350:s1 *350:start 1.34687e-05
55 *351:s1 *351:start 1.22827e-05
56 *30:9 *62:33 0.00107632
57 *30:13 *41:13 0.00440025
58 *30:13 *41:21 0.00157617
59 *30:21 *41:21 0.000456035
60 *30:23 *41:23 0.00351553
61 *30:40 *41:23 0.000415935
62 *30:40 *41:53 0.000263833
63 *30:40 *52:73 2.38759e-05
64 *30:42 *41:53 0.00591497
65 *30:42 *52:75 0.00591857
66 *30:55 *41:53 0.000243339
67 *30:55 *52:75 0.000648762
68 *30:61 *41:102 0.00628087
69 *30:99 *41:137 0.00346873
70 *30:136 *338:start 4.66108e-05
71 *30:138 *41:165 0.000745946
72 *30:138 *41:189 0.00588686
73 *30:150 *41:189 0.000834201
74 *30:150 *41:217 0.00628061
75 *30:161 *41:217 0.000438535
76 *30:161 *41:245 0.00401606
77 *30:165 *41:245 0.00136099
78 *30:186 *41:245 0.000257425
79 *30:186 *41:270 0.000448233
80 *30:186 *41:272 0.00125176
81 *30:188 *41:272 0.00465247
82 *30:205 *41:272 0.00071892
83 *30:205 *41:301 0.000903237
84 *30:207 *41:301 0.00138223
85 *30:207 *41:309 0.00214181
86 *30:222 *41:309 0.000230878
87 *30:244 *345:start 4.55956e-05
88 *30:246 *41:389 0.00325374
*RES
1 io_in[0] *30:5 172.517 
2 *30:5 *30:7 0.5 
3 *30:7 *30:9 653.925 
4 *30:9 *30:13 9.33627 
5 *30:13 *30:21 1.982 
6 *30:21 *30:23 69.5925 
7 *30:23 *343:s1 9.09 
8 *30:23 *30:40 14.4503 
9 *30:40 *30:42 66.2775 
10 *30:42 *342:s1 12.6 
11 *30:42 *30:55 32.7675 
12 *30:55 *30:59 45.99 
13 *30:59 *30:61 81.195 
14 *30:61 *30:67 2.9608 
15 *30:67 *340:s1 4.295 
16 *30:67 *30:87 55.185 
17 *30:87 *30:99 30.8809 
18 *30:99 *339:s1 1.1802 
19 *30:99 *30:116 48.215 
20 *30:116 *338:s1 27.2437 
21 *338:s1 *30:132 6.84875 
22 *30:132 *30:136 10.73 
23 *30:136 *30:138 76.605 
24 *30:138 *352:s1 13.0175 
25 *30:138 *30:150 82.215 
26 *30:150 *351:s1 9.4425 
27 *30:150 *30:161 51.4275 
28 *30:161 *30:165 26.7525 
29 *30:165 *350:s1 12.7875 
30 *30:165 *30:186 32.515 
31 *30:186 *30:188 51.87 
32 *30:188 *349:s1 12.8663 
33 *30:188 *30:205 18.8325 
34 *30:205 *30:207 60.9675 
35 *30:207 *348:s1 10.4025 
36 *30:207 *30:222 77.7525 
37 *30:222 *30:224 78.5175 
38 *30:224 *346:s1 5.11625 
39 *30:224 *30:238 80.43 
40 *30:238 *30:240 2 
41 *30:240 *30:244 3.485 
42 *30:244 *30:246 67.935 
43 *30:246 *337:s1 14.8162 
44 *30:240 *345:s1 10.2063 
45 *30:222 *347:s1 4.72625 
46 *30:59 *341:s1 13.4812 
47 *30:13 *344:s1 12.2153 
*END

*D_NET *41 0.413607
*CONN
*P io_in[1] I
*I *344:s2 I *D sky130_osu_ring_oscillator_mpr2ya_8_b0r2
*I *342:s2 I *D sky130_osu_ring_oscillator_mpr2et_8_b0r2
*I *346:s2 I *D sky130_osu_ring_oscillator_mpr2ca_8_b0r1
*I *345:s2 I *D sky130_osu_ring_oscillator_mpr2at_8_b0r1
*I *337:s2 I *D sky130_osu_ring_oscillator_mpr2aa_8_b0r1
*I *347:s2 I *D sky130_osu_ring_oscillator_mpr2ct_8_b0r1
*I *348:s2 I *D sky130_osu_ring_oscillator_mpr2ea_8_b0r1
*I *349:s2 I *D sky130_osu_ring_oscillator_mpr2et_8_b0r1
*I *350:s2 I *D sky130_osu_ring_oscillator_mpr2xa_8_b0r1
*I *351:s2 I *D sky130_osu_ring_oscillator_mpr2ya_8_b0r1
*I *352:s2 I *D sky130_osu_ring_oscillator_mpr2aa_8_b0r2
*I *338:s2 I *D sky130_osu_ring_oscillator_mpr2at_8_b0r2
*I *339:s2 I *D sky130_osu_ring_oscillator_mpr2ca_8_b0r2
*I *340:s2 I *D sky130_osu_ring_oscillator_mpr2ct_8_b0r2
*I *341:s2 I *D sky130_osu_ring_oscillator_mpr2ea_8_b0r2
*I *343:s2 I *D sky130_osu_ring_oscillator_mpr2xa_8_b0r2
*CAP
1 io_in[1] 0.0568432
2 *344:s2 0.000620035
3 *342:s2 0.000399589
4 *346:s2 0.000408247
5 *345:s2 0.00206198
6 *337:s2 0.00182764
7 *347:s2 0.00209275
8 *348:s2 0.000324918
9 *349:s2 0.00217583
10 *350:s2 0.00133177
11 *351:s2 0.00176459
12 *352:s2 0.00186012
13 *338:s2 0.00210672
14 *339:s2 0.000430576
15 *340:s2 0.0016595
16 *341:s2 0.000294078
17 *343:s2 0.00171724
18 *41:389 0.00438252
19 *41:387 0.00255489
20 *41:385 0.00235519
21 *41:381 0.00543293
22 *41:379 0.00681452
23 *41:373 0.00588558
24 *41:371 0.00419376
25 *41:331 0.00423732
26 *41:309 0.00532672
27 *41:301 0.0042536
28 *41:272 0.00657155
29 *41:270 0.00301906
30 *41:245 0.00466598
31 *41:240 0
32 *41:217 0.00758428
33 *41:189 0.00764622
34 *41:165 0.00741135
35 *41:163 0.00555898
36 *41:137 0.0053782
37 *41:127 0.00448658
38 *41:102 0.00751034
39 *41:100 0.00507528
40 *41:75 0.00205136
41 *41:65 0.00414393
42 *41:63 0.00399378
43 *41:61 0.00203976
44 *41:53 0.00420101
45 *41:23 0.0070672
46 *41:21 0.0038201
47 *41:13 0.00783042
48 *41:9 0.0339559
49 *41:7 0.0277765
50 *41:5 0.0568432
51 *343:s2 *52:73 0.000571145
52 *347:s2 *277:16 0
53 *349:s2 *278:7 0
54 *41:13 *344:s3 0.00168528
55 *41:13 *52:13 0.00789279
56 *41:53 *52:75 0.000131515
57 *41:61 *52:79 0
58 *41:65 *271:12 0
59 *41:379 *260:11 0
60 *30:13 *41:13 0.00440025
61 *30:13 *41:21 0.00157617
62 *30:21 *41:21 0.000456035
63 *30:23 *41:23 0.00351553
64 *30:40 *41:23 0.000415935
65 *30:40 *41:53 0.000263833
66 *30:42 *41:53 0.00591497
67 *30:55 *41:53 0.000243339
68 *30:61 *41:102 0.00628087
69 *30:99 *41:137 0.00346873
70 *30:138 *41:165 0.000745946
71 *30:138 *41:189 0.00588686
72 *30:150 *41:189 0.000834201
73 *30:150 *41:217 0.00628061
74 *30:161 *41:217 0.000438535
75 *30:161 *41:245 0.00401606
76 *30:165 *41:245 0.00136099
77 *30:186 *41:245 0.000257425
78 *30:186 *41:270 0.000448233
79 *30:186 *41:272 0.00125176
80 *30:188 *41:272 0.00465247
81 *30:205 *41:272 0.00071892
82 *30:205 *41:301 0.000903237
83 *30:207 *41:301 0.00138223
84 *30:207 *41:309 0.00214181
85 *30:222 *41:309 0.000230878
86 *30:246 *41:389 0.00325374
*RES
1 io_in[1] *41:5 152.415 
2 *41:5 *41:7 0.5 
3 *41:7 *41:9 505.515 
4 *41:9 *41:13 27.1659 
5 *41:13 *41:21 4.45707 
6 *41:21 *41:23 75.585 
7 *41:23 *343:s2 14.0746 
8 *41:23 *41:53 74.055 
9 *41:53 *41:61 4.7484 
10 *41:61 *41:63 0.5 
11 *41:63 *41:65 72.525 
12 *41:65 *341:s2 2.83875 
13 *341:s2 *41:75 2.6775 
14 *41:75 *41:100 13.5456 
15 *41:100 *41:102 80.685 
16 *41:102 *340:s2 18.0358 
17 *41:102 *41:127 46.995 
18 *41:127 *41:137 30.7633 
19 *41:137 *339:s2 4.83478 
20 *41:137 *41:163 41.5633 
21 *41:163 *41:165 44.985 
22 *41:165 *338:s2 13.4096 
23 *41:165 *41:189 77.625 
24 *41:189 *352:s2 12.7918 
25 *41:189 *41:217 77.625 
26 *41:217 *351:s2 11.2468 
27 *351:s2 *41:240 0.163333 
28 *41:217 *41:245 77.625 
29 *41:245 *350:s2 6.86427 
30 *41:245 *41:270 13.7875 
31 *41:270 *41:272 74.6925 
32 *41:272 *349:s2 16.7527 
33 *41:272 *41:301 47.025 
34 *41:301 *41:309 32.1871 
35 *41:309 *348:s2 4.3948 
36 *41:309 *41:331 46.035 
37 *41:331 *347:s2 30.6336 
38 *347:s2 *41:371 3.49777 
39 *41:371 *41:373 68.955 
40 *41:373 *41:379 5.46627 
41 *41:379 *41:381 93.435 
42 *41:381 *41:385 1.29547 
43 *41:385 *41:387 0.5 
44 *41:387 *41:389 66.915 
45 *41:389 *337:s2 7.68297 
46 *41:385 *345:s2 13.0674 
47 *41:373 *346:s2 9.16625 
48 *41:61 *342:s2 3.85837 
49 *41:13 *344:s2 10.6727 
*END

*D_NET *52 0.428515
*CONN
*P io_in[2] I
*I *346:s3 I *D sky130_osu_ring_oscillator_mpr2ca_8_b0r1
*I *337:s3 I *D sky130_osu_ring_oscillator_mpr2aa_8_b0r1
*I *345:s3 I *D sky130_osu_ring_oscillator_mpr2at_8_b0r1
*I *347:s3 I *D sky130_osu_ring_oscillator_mpr2ct_8_b0r1
*I *348:s3 I *D sky130_osu_ring_oscillator_mpr2ea_8_b0r1
*I *349:s3 I *D sky130_osu_ring_oscillator_mpr2et_8_b0r1
*I *350:s3 I *D sky130_osu_ring_oscillator_mpr2xa_8_b0r1
*I *351:s3 I *D sky130_osu_ring_oscillator_mpr2ya_8_b0r1
*I *352:s3 I *D sky130_osu_ring_oscillator_mpr2aa_8_b0r2
*I *338:s3 I *D sky130_osu_ring_oscillator_mpr2at_8_b0r2
*I *339:s3 I *D sky130_osu_ring_oscillator_mpr2ca_8_b0r2
*I *340:s3 I *D sky130_osu_ring_oscillator_mpr2ct_8_b0r2
*I *341:s3 I *D sky130_osu_ring_oscillator_mpr2ea_8_b0r2
*I *342:s3 I *D sky130_osu_ring_oscillator_mpr2et_8_b0r2
*I *343:s3 I *D sky130_osu_ring_oscillator_mpr2xa_8_b0r2
*I *344:s3 I *D sky130_osu_ring_oscillator_mpr2ya_8_b0r2
*CAP
1 io_in[2] 0.0535066
2 *346:s3 0.000619929
3 *337:s3 0.00246384
4 *345:s3 0.00197107
5 *347:s3 0.000700309
6 *348:s3 0.00234361
7 *349:s3 0.00182481
8 *350:s3 0.00207019
9 *351:s3 0.0015853
10 *352:s3 0.00232364
11 *338:s3 0.00225721
12 *339:s3 0.0019987
13 *340:s3 0.00200358
14 *341:s3 0.00231726
15 *342:s3 0.000574529
16 *343:s3 0.000617393
17 *344:s3 0.00193861
18 *52:475 0.00517735
19 *52:473 0.00271351
20 *52:449 0.00298789
21 *52:437 0.00358062
22 *52:435 0.00481152
23 *52:425 0.00333463
24 *52:421 0.00355883
25 *52:419 0.00309184
26 *52:398 0.00238239
27 *52:394 0.00497961
28 *52:392 0.00374919
29 *52:362 0.00279526
30 *52:360 0.00285009
31 *52:334 0.00515933
32 *52:326 0.00454423
33 *52:324 0.00487707
34 *52:298 0.00288747
35 *52:296 0.00444405
36 *52:268 0.00976173
37 *52:240 0.00632643
38 *52:234 0.00318357
39 *52:232 0.00291316
40 *52:208 0.00260539
41 *52:204 0.00256855
42 *52:202 0.00317476
43 *52:169 0.00630131
44 *52:164 0
45 *52:145 0.00576056
46 *52:141 0.00359739
47 *52:139 0.00343013
48 *52:113 0.00255874
49 *52:111 0.00439087
50 *52:109 0.00581982
51 *52:79 0.00464563
52 *52:75 0.00527458
53 *52:73 0.00462076
54 *52:45 0.00445599
55 *52:39 0.00474862
56 *52:37 0.00289836
57 *52:13 0.0139261
58 *52:9 0.0316164
59 *52:7 0.0196289
60 *52:5 0.0535066
61 *338:s3 *314:11 0
62 *339:s3 *339:s4 0.00182392
63 *340:s3 *340:s4 0.00154433
64 *345:s3 *300:15 0.000372028
65 *346:s3 *292:11 0
66 *348:s3 *348:s4 0
67 *348:s3 *61:359 0
68 *349:s3 *294:7 0
69 *349:s3 *294:13 0.00158286
70 *350:s3 *61:314 0
71 *350:s3 *62:263 0
72 *351:s3 *351:s4 0
73 *351:s3 *61:256 0.000445361
74 *351:s3 *296:12 0.0008676
75 *352:s3 *62:202 0
76 *52:39 *62:33 0.00557226
77 *52:39 *62:51 0.000554636
78 *52:39 *62:53 0
79 *52:45 *61:59 0
80 *52:109 *61:107 0.000398107
81 *52:111 *61:109 0
82 *52:111 *62:103 0
83 *52:141 *61:125 0
84 *52:141 *62:103 0
85 *52:141 *62:107 0.00189425
86 *52:141 *62:115 0.000612792
87 *52:141 *62:127 0.000468621
88 *52:145 *61:155 4.55864e-06
89 *52:145 *62:127 0
90 *52:169 *61:155 0.00241808
91 *52:169 *61:159 0
92 *52:169 *62:155 0.000347983
93 *52:169 *317:21 1.03755e-05
94 *52:202 *335:data_in[9] 0.000357104
95 *52:204 *61:192 0.000449973
96 *52:204 *61:210 0.000991778
97 *52:204 *62:157 0.00525308
98 *52:204 *271:18 0.000634665
99 *52:204 *312:21 0
100 *52:208 *61:210 0
101 *52:208 *311:18 6.9795e-05
102 *52:208 *312:25 0.000223663
103 *52:208 *314:11 0
104 *52:234 *61:212 0.00628226
105 *52:234 *62:202 0
106 *52:234 *311:14 0
107 *52:268 *351:s5 0
108 *52:268 *61:256 0.00212056
109 *52:268 *62:202 0
110 *52:268 *62:212 0
111 *52:268 *62:234 0
112 *52:296 *350:s5 0
113 *52:296 *62:234 0
114 *52:296 *62:265 0
115 *52:326 *62:287 0.000385001
116 *52:326 *276:13 0.000774601
117 *52:326 *277:18 0.000731474
118 *52:326 *324:10 0
119 *52:334 *61:355 0.000156345
120 *52:334 *278:11 0
121 *52:334 *291:25 4.92027e-05
122 *52:334 *294:13 0.000299725
123 *52:360 *61:355 0.00361726
124 *52:360 *326:17 3.98098e-05
125 *52:392 *62:307 0.000393851
126 *52:392 *62:309 0
127 *52:392 *291:21 0
128 *52:394 *61:389 0.00286624
129 *52:394 *62:309 0
130 *52:394 *62:327 0.000247618
131 *52:394 *291:21 0
132 *52:394 *325:15 5.94427e-06
133 *52:398 *347:s4 0
134 *52:398 *61:389 0
135 *52:398 *260:17 0
136 *52:425 *292:11 0
137 *52:435 *62:327 0
138 *52:435 *62:343 0
139 *52:435 *276:11 0
140 *52:435 *291:21 0
141 *52:437 *61:444 0.00559379
142 *52:437 *62:343 0
143 *52:437 *291:21 0.000377834
144 *52:449 *61:444 8.11914e-05
145 *52:449 *61:456 0.000703003
146 *52:449 *62:345 2.28474e-05
147 *52:449 *300:15 0.000168596
148 *52:449 *323:19 1.87784e-05
149 *52:475 *337:s4 0.000102192
150 *52:475 *61:475 0.00295105
151 *343:s2 *52:73 0.000571145
152 *30:40 *52:73 2.38759e-05
153 *30:42 *52:75 0.00591857
154 *30:55 *52:75 0.000648762
155 *41:13 *344:s3 0.00168528
156 *41:13 *52:13 0.00789279
157 *41:53 *52:75 0.000131515
158 *41:61 *52:79 0
*RES
1 io_in[2] *52:5 134.061 
2 *52:5 *52:7 0.5 
3 *52:7 *52:9 357.105 
4 *52:9 *52:13 38.994 
5 *52:13 *344:s3 16.2653 
6 *52:13 *52:37 0.5 
7 *52:37 *52:39 75.585 
8 *52:39 *52:45 5.81587 
9 *52:45 *343:s3 10.0033 
10 *52:45 *52:73 9.22833 
11 *52:73 *52:75 76.095 
12 *52:75 *52:79 7.41347 
13 *52:79 *342:s3 9.82828 
14 *52:79 *52:109 4.72053 
15 *52:109 *52:111 79.155 
16 *52:111 *52:113 0.5 
17 *52:113 *341:s3 13.4694 
18 *52:113 *52:139 1.0624 
19 *52:139 *52:141 76.095 
20 *52:141 *52:145 7.38 
21 *52:145 *340:s3 18.3211 
22 *340:s3 *52:164 0.163333 
23 *52:145 *52:169 78.135 
24 *52:169 *339:s3 14.9775 
25 *52:169 *52:202 13.9333 
26 *52:202 *52:204 71.505 
27 *52:204 *52:208 1.70333 
28 *52:208 *338:s3 16.2883 
29 *52:208 *52:232 0.5 
30 *52:232 *52:234 78.645 
31 *52:234 *52:240 1.62067 
32 *52:240 *352:s3 17.5502 
33 *52:240 *52:268 73.035 
34 *52:268 *351:s3 12.2483 
35 *52:268 *52:296 79.155 
36 *52:296 *52:298 0.5 
37 *52:298 *350:s3 11.1349 
38 *52:298 *52:324 2.69387 
39 *52:324 *52:326 81.705 
40 *52:326 *52:334 5.54313 
41 *52:334 *349:s3 17.3388 
42 *52:334 *52:360 74.565 
43 *52:360 *52:362 0.5 
44 *52:362 *348:s3 13.4992 
45 *52:362 *52:392 6.50567 
46 *52:392 *52:394 73.305 
47 *52:394 *52:398 4.96627 
48 *52:398 *347:s3 7.87223 
49 *52:398 *52:419 0.5 
50 *52:419 *52:421 56.28 
51 *52:421 *52:425 8.13 
52 *52:425 *52:435 14.4911 
53 *52:435 *52:437 72.555 
54 *52:437 *52:449 18.1768 
55 *52:449 *345:s3 13.8282 
56 *52:449 *52:473 0.5 
57 *52:473 *52:475 67.935 
58 *52:475 *337:s3 13.6083 
59 *52:425 *346:s3 12.9987 
*END

*D_NET *61 0.356998
*CONN
*P io_in[3] I
*I *337:s4 I *D sky130_osu_ring_oscillator_mpr2aa_8_b0r1
*I *345:s4 I *D sky130_osu_ring_oscillator_mpr2at_8_b0r1
*I *346:s4 I *D sky130_osu_ring_oscillator_mpr2ca_8_b0r1
*I *347:s4 I *D sky130_osu_ring_oscillator_mpr2ct_8_b0r1
*I *348:s4 I *D sky130_osu_ring_oscillator_mpr2ea_8_b0r1
*I *349:s4 I *D sky130_osu_ring_oscillator_mpr2et_8_b0r1
*I *350:s4 I *D sky130_osu_ring_oscillator_mpr2xa_8_b0r1
*I *351:s4 I *D sky130_osu_ring_oscillator_mpr2ya_8_b0r1
*I *352:s4 I *D sky130_osu_ring_oscillator_mpr2aa_8_b0r2
*I *338:s4 I *D sky130_osu_ring_oscillator_mpr2at_8_b0r2
*I *339:s4 I *D sky130_osu_ring_oscillator_mpr2ca_8_b0r2
*I *340:s4 I *D sky130_osu_ring_oscillator_mpr2ct_8_b0r2
*I *341:s4 I *D sky130_osu_ring_oscillator_mpr2ea_8_b0r2
*I *342:s4 I *D sky130_osu_ring_oscillator_mpr2et_8_b0r2
*I *343:s4 I *D sky130_osu_ring_oscillator_mpr2xa_8_b0r2
*I *344:s4 I *D sky130_osu_ring_oscillator_mpr2ya_8_b0r2
*CAP
1 io_in[3] 0.000793773
2 *337:s4 0.00114813
3 *345:s4 0.00086022
4 *346:s4 0.00142062
5 *347:s4 0.00173308
6 *348:s4 0.000548685
7 *349:s4 0.0039916
8 *350:s4 0.00015126
9 *351:s4 0.000580763
10 *352:s4 0.000322927
11 *338:s4 0.000997688
12 *339:s4 0.00137736
13 *340:s4 0.00134859
14 *341:s4 0.00103612
15 *342:s4 0.00181435
16 *343:s4 0.000157789
17 *344:s4 0.000416781
18 *61:475 0.00354315
19 *61:473 0.00239502
20 *61:456 0.00119844
21 *61:444 0.00128397
22 *61:442 0.00150958
23 *61:415 0.00489392
24 *61:413 0.00290948
25 *61:389 0.00448575
26 *61:377 0.00552156
27 *61:375 0.00276889
28 *61:359 0.00135823
29 *61:355 0.00356132
30 *61:353 0.00389821
31 *61:314 0.00511751
32 *61:282 0.00619872
33 *61:256 0.00709134
34 *61:238 0.0056448
35 *61:218 0.00435515
36 *61:212 0.00378252
37 *61:210 0.00336213
38 *61:192 0.00213999
39 *61:184 0.00270742
40 *61:182 0.00264202
41 *61:159 0.00292673
42 *61:155 0.00294
43 *61:129 0.00331291
44 *61:125 0.00461063
45 *61:123 0.00496899
46 *61:109 0.00530239
47 *61:107 0.0048963
48 *61:76 2.85417e-06
49 *61:61 0.00430684
50 *61:59 0.00429533
51 *61:33 0.00452647
52 *61:31 0.00375637
53 *61:13 0.0648776
54 *61:11 0.0644608
55 *61:9 0.0101306
56 *61:7 0.0109244
57 *337:s4 *300:7 0
58 *337:s4 *316:15 0
59 *338:s4 *62:165 0
60 *339:s4 *62:155 3.23812e-05
61 *341:s4 *303:12 2.41228e-05
62 *341:s4 *319:7 0
63 *342:s4 *256:16 0.000848497
64 *342:s4 *304:12 0
65 *345:s4 *62:353 0.00072189
66 *345:s4 *300:15 0.00039013
67 *349:s4 *62:265 0
68 *349:s4 *263:12 0
69 *349:s4 *295:8 0
70 *349:s4 *311:12 0
71 *61:9 *62:11 0.00385151
72 *61:33 *305:7 0.000835752
73 *61:59 *305:7 8.16252e-05
74 *61:61 *288:12 0
75 *61:123 *62:103 0.000451976
76 *61:125 *62:103 0
77 *61:125 *62:127 0.000396364
78 *61:125 *271:18 0
79 *61:155 *62:127 0
80 *61:159 *62:135 0.0019682
81 *61:159 *62:155 0.00081159
82 *61:159 *317:21 8.41015e-06
83 *61:182 *62:155 0.000278181
84 *61:184 *287:14 0.00315895
85 *61:184 *324:10 0
86 *61:192 *331:13 5.05066e-06
87 *61:210 *311:18 0.000164284
88 *61:210 *331:13 1.25123e-05
89 *61:212 *311:14 0
90 *61:256 *351:s5 8.62718e-05
91 *61:256 *62:202 0
92 *61:256 *62:212 0
93 *61:282 *312:19 0.000477686
94 *61:353 *278:11 0
95 *61:353 *294:13 0.000346089
96 *61:355 *326:17 4.21126e-05
97 *61:389 *62:327 0
98 *61:389 *291:21 0
99 *61:415 *62:327 0
100 *61:415 *62:343 0
101 *61:415 *260:13 0.00498267
102 *61:442 *62:343 0
103 *61:444 *62:345 0.00524785
104 *61:444 *291:21 0.00029087
105 *61:444 *323:19 1.79483e-05
106 *61:456 *62:345 0.000683825
107 *61:456 *62:349 0.000639004
108 *61:456 *62:353 5.99126e-05
109 *61:456 *300:15 0.000223946
110 *339:s3 *339:s4 0.00182392
111 *340:s3 *340:s4 0.00154433
112 *348:s3 *348:s4 0
113 *348:s3 *61:359 0
114 *350:s3 *61:314 0
115 *351:s3 *351:s4 0
116 *351:s3 *61:256 0.000445361
117 *52:45 *61:59 0
118 *52:109 *61:107 0.000398107
119 *52:111 *61:109 0
120 *52:141 *61:125 0
121 *52:145 *61:155 4.55864e-06
122 *52:169 *61:155 0.00241808
123 *52:169 *61:159 0
124 *52:204 *61:192 0.000449973
125 *52:204 *61:210 0.000991778
126 *52:208 *61:210 0
127 *52:234 *61:212 0.00628226
128 *52:268 *61:256 0.00212056
129 *52:334 *61:355 0.000156345
130 *52:360 *61:355 0.00361726
131 *52:394 *61:389 0.00286624
132 *52:398 *347:s4 0
133 *52:398 *61:389 0
134 *52:437 *61:444 0.00559379
135 *52:449 *61:444 8.11914e-05
136 *52:449 *61:456 0.000703003
137 *52:475 *337:s4 0.000102192
138 *52:475 *61:475 0.00295105
*RES
1 io_in[3] *61:7 2.58747 
2 *61:7 *61:9 200.535 
3 *61:9 *61:11 0.5 
4 *61:11 *61:13 172.682 
5 *61:13 *344:s4 3.14552 
6 *61:13 *61:31 0.5 
7 *61:31 *61:33 71.1225 
8 *61:33 *343:s4 4.82375 
9 *61:33 *61:59 7.14483 
10 *61:59 *61:61 66.405 
11 *61:61 *342:s4 7.9166 
12 *342:s4 *61:76 0.98 
13 *342:s4 *61:107 12.9918 
14 *61:107 *61:109 67.0425 
15 *61:109 *341:s4 20.2062 
16 *61:109 *61:123 12.0225 
17 *61:123 *61:125 82.725 
18 *61:125 *61:129 1.00413 
19 *61:129 *340:s4 16.8003 
20 *61:129 *61:155 47.84 
21 *61:155 *61:159 32.705 
22 *61:159 *339:s4 13.1261 
23 *61:159 *61:182 1.64507 
24 *61:182 *61:184 60.9225 
25 *61:184 *61:192 12.415 
26 *61:192 *338:s4 19.3175 
27 *61:192 *61:210 13.2843 
28 *61:210 *61:212 74.055 
29 *61:212 *61:218 3.77653 
30 *61:218 *352:s4 4.16857 
31 *61:218 *61:238 52.635 
32 *61:238 *61:256 31.3933 
33 *61:256 *351:s4 6.73643 
34 *61:256 *61:282 71.8875 
35 *61:282 *350:s4 4.71875 
36 *61:282 *61:314 39.8232 
37 *61:314 *349:s4 44.9816 
38 *349:s4 *61:353 13.3065 
39 *61:353 *61:355 73.545 
40 *61:355 *61:359 2.4608 
41 *61:359 *348:s4 2.89743 
42 *61:359 *61:375 0.5 
43 *61:375 *61:377 50.085 