*SPEF "ieee 1481-1999"
*DESIGN "user_project_wrapper"
*DATE "11:11:11 Fri 11 11, 1111"
*VENDOR "OpenRCX"
*PROGRAM "Parallel Extraction"
*VERSION "1.0"
*DESIGN_FLOW "NAME_SCOPE LOCAL" "PIN_CAP NONE"
*DIVIDER /
*DELIMITER :
*BUS_DELIMITER []
*T_UNIT 1 NS
*C_UNIT 1 PF
*R_UNIT 1 OHM
*L_UNIT 1 HENRY

*NAME_MAP
*1 analog_io[0]
*2 analog_io[10]
*3 analog_io[11]
*4 analog_io[12]
*5 analog_io[13]
*6 analog_io[14]
*7 analog_io[15]
*8 analog_io[16]
*9 analog_io[17]
*10 analog_io[18]
*11 analog_io[19]
*12 analog_io[1]
*13 analog_io[20]
*14 analog_io[21]
*15 analog_io[22]
*16 analog_io[23]
*17 analog_io[24]
*18 analog_io[25]
*19 analog_io[26]
*20 analog_io[27]
*21 analog_io[28]
*22 analog_io[2]
*23 analog_io[3]
*24 analog_io[4]
*25 analog_io[5]
*26 analog_io[6]
*27 analog_io[7]
*28 analog_io[8]
*29 analog_io[9]
*30 io_in[0]
*31 io_in[10]
*32 io_in[11]
*33 io_in[12]
*34 io_in[13]
*35 io_in[14]
*36 io_in[15]
*37 io_in[16]
*38 io_in[17]
*39 io_in[18]
*40 io_in[19]
*41 io_in[1]
*42 io_in[20]
*43 io_in[21]
*44 io_in[22]
*45 io_in[23]
*46 io_in[24]
*47 io_in[25]
*48 io_in[26]
*49 io_in[27]
*50 io_in[28]
*51 io_in[29]
*52 io_in[2]
*53 io_in[30]
*54 io_in[31]
*55 io_in[32]
*56 io_in[33]
*57 io_in[34]
*58 io_in[35]
*59 io_in[36]
*60 io_in[37]
*61 io_in[3]
*62 io_in[4]
*63 io_in[5]
*64 io_in[6]
*65 io_in[7]
*66 io_in[8]
*67 io_in[9]
*68 io_oeb[0]
*69 io_oeb[10]
*70 io_oeb[11]
*71 io_oeb[12]
*72 io_oeb[13]
*73 io_oeb[14]
*74 io_oeb[15]
*75 io_oeb[16]
*76 io_oeb[17]
*77 io_oeb[18]
*78 io_oeb[19]
*79 io_oeb[1]
*80 io_oeb[20]
*81 io_oeb[21]
*82 io_oeb[22]
*83 io_oeb[23]
*84 io_oeb[24]
*85 io_oeb[25]
*86 io_oeb[26]
*87 io_oeb[27]
*88 io_oeb[28]
*89 io_oeb[29]
*90 io_oeb[2]
*91 io_oeb[30]
*92 io_oeb[31]
*93 io_oeb[32]
*94 io_oeb[33]
*95 io_oeb[34]
*96 io_oeb[35]
*97 io_oeb[36]
*98 io_oeb[37]
*99 io_oeb[3]
*100 io_oeb[4]
*101 io_oeb[5]
*102 io_oeb[6]
*103 io_oeb[7]
*104 io_oeb[8]
*105 io_oeb[9]
*106 io_out[0]
*107 io_out[10]
*108 io_out[11]
*109 io_out[12]
*110 io_out[13]
*111 io_out[14]
*112 io_out[15]
*113 io_out[16]
*114 io_out[17]
*115 io_out[18]
*116 io_out[19]
*117 io_out[1]
*118 io_out[20]
*119 io_out[21]
*120 io_out[22]
*121 io_out[23]
*122 io_out[24]
*123 io_out[25]
*124 io_out[26]
*125 io_out[27]
*126 io_out[28]
*127 io_out[29]
*128 io_out[2]
*129 io_out[30]
*130 io_out[31]
*131 io_out[32]
*132 io_out[33]
*133 io_out[34]
*134 io_out[35]
*135 io_out[36]
*136 io_out[37]
*137 io_out[3]
*138 io_out[4]
*139 io_out[5]
*140 io_out[6]
*141 io_out[7]
*142 io_out[8]
*143 io_out[9]
*146 wb_clk_i
*147 wb_rst_i
*148 wbs_ack_o
*149 wbs_adr_i[0]
*150 wbs_adr_i[10]
*151 wbs_adr_i[11]
*152 wbs_adr_i[12]
*153 wbs_adr_i[13]
*154 wbs_adr_i[14]
*155 wbs_adr_i[15]
*156 wbs_adr_i[16]
*157 wbs_adr_i[17]
*158 wbs_adr_i[18]
*159 wbs_adr_i[19]
*160 wbs_adr_i[1]
*161 wbs_adr_i[20]
*162 wbs_adr_i[21]
*163 wbs_adr_i[22]
*164 wbs_adr_i[23]
*165 wbs_adr_i[24]
*166 wbs_adr_i[25]
*167 wbs_adr_i[26]
*168 wbs_adr_i[27]
*169 wbs_adr_i[28]
*170 wbs_adr_i[29]
*171 wbs_adr_i[2]
*172 wbs_adr_i[30]
*173 wbs_adr_i[31]
*174 wbs_adr_i[3]
*175 wbs_adr_i[4]
*176 wbs_adr_i[5]
*177 wbs_adr_i[6]
*178 wbs_adr_i[7]
*179 wbs_adr_i[8]
*180 wbs_adr_i[9]
*181 wbs_cyc_i
*182 wbs_dat_i[0]
*183 wbs_dat_i[10]
*184 wbs_dat_i[11]
*185 wbs_dat_i[12]
*186 wbs_dat_i[13]
*187 wbs_dat_i[14]
*188 wbs_dat_i[15]
*189 wbs_dat_i[16]
*190 wbs_dat_i[17]
*191 wbs_dat_i[18]
*192 wbs_dat_i[19]
*193 wbs_dat_i[1]
*194 wbs_dat_i[20]
*195 wbs_dat_i[21]
*196 wbs_dat_i[22]
*197 wbs_dat_i[23]
*198 wbs_dat_i[24]
*199 wbs_dat_i[25]
*200 wbs_dat_i[26]
*201 wbs_dat_i[27]
*202 wbs_dat_i[28]
*203 wbs_dat_i[29]
*204 wbs_dat_i[2]
*205 wbs_dat_i[30]
*206 wbs_dat_i[31]
*207 wbs_dat_i[3]
*208 wbs_dat_i[4]
*209 wbs_dat_i[5]
*210 wbs_dat_i[6]
*211 wbs_dat_i[7]
*212 wbs_dat_i[8]
*213 wbs_dat_i[9]
*214 wbs_dat_o[0]
*215 wbs_dat_o[10]
*216 wbs_dat_o[11]
*217 wbs_dat_o[12]
*218 wbs_dat_o[13]
*219 wbs_dat_o[14]
*220 wbs_dat_o[15]
*221 wbs_dat_o[16]
*222 wbs_dat_o[17]
*223 wbs_dat_o[18]
*224 wbs_dat_o[19]
*225 wbs_dat_o[1]
*226 wbs_dat_o[20]
*227 wbs_dat_o[21]
*228 wbs_dat_o[22]
*229 wbs_dat_o[23]
*230 wbs_dat_o[24]
*231 wbs_dat_o[25]
*232 wbs_dat_o[26]
*233 wbs_dat_o[27]
*234 wbs_dat_o[28]
*235 wbs_dat_o[29]
*236 wbs_dat_o[2]
*237 wbs_dat_o[30]
*238 wbs_dat_o[31]
*239 wbs_dat_o[3]
*240 wbs_dat_o[4]
*241 wbs_dat_o[5]
*242 wbs_dat_o[6]
*243 wbs_dat_o[7]
*244 wbs_dat_o[8]
*245 wbs_dat_o[9]
*246 wbs_sel_i[0]
*247 wbs_sel_i[1]
*248 wbs_sel_i[2]
*249 wbs_sel_i[3]
*250 wbs_stb_i
*251 wbs_we_i
*252 a\[0\]
*253 a\[1\]
*254 a\[2\]
*255 a\[3\]
*256 a\[4\]
*257 zero_
*258 TIE_ZERO_zero_
*259 mprj
*260 ro1

*PORTS
analog_io[0] I
analog_io[10] I
analog_io[11] I
analog_io[12] I
analog_io[13] I
analog_io[14] I
analog_io[15] I
analog_io[16] I
analog_io[17] I
analog_io[18] I
analog_io[19] I
analog_io[1] I
analog_io[20] I
analog_io[21] I
analog_io[22] I
analog_io[23] I
analog_io[24] I
analog_io[25] I
analog_io[26] I
analog_io[27] I
analog_io[28] I
analog_io[2] I
analog_io[3] I
analog_io[4] I
analog_io[5] I
analog_io[6] I
analog_io[7] I
analog_io[8] I
analog_io[9] I
io_in[0] I
io_in[10] I
io_in[11] I
io_in[12] I
io_in[13] I
io_in[14] I
io_in[15] I
io_in[16] I
io_in[17] I
io_in[18] I
io_in[19] I
io_in[1] I
io_in[20] I
io_in[21] I
io_in[22] I
io_in[23] I
io_in[24] I
io_in[25] I
io_in[26] I
io_in[27] I
io_in[28] I
io_in[29] I
io_in[2] I
io_in[30] I
io_in[31] I
io_in[32] I
io_in[33] I
io_in[34] I
io_in[35] I
io_in[36] I
io_in[37] I
io_in[3] I
io_in[4] I
io_in[5] I
io_in[6] I
io_in[7] I
io_in[8] I
io_in[9] I
io_oeb[0] O
io_oeb[10] O
io_oeb[11] O
io_oeb[12] O
io_oeb[13] O
io_oeb[14] O
io_oeb[15] O
io_oeb[16] O
io_oeb[17] O
io_oeb[18] O
io_oeb[19] O
io_oeb[1] O
io_oeb[20] O
io_oeb[21] O
io_oeb[22] O
io_oeb[23] O
io_oeb[24] O
io_oeb[25] O
io_oeb[26] O
io_oeb[27] O
io_oeb[28] O
io_oeb[29] O
io_oeb[2] O
io_oeb[30] O
io_oeb[31] O
io_oeb[32] O
io_oeb[33] O
io_oeb[34] O
io_oeb[35] O
io_oeb[36] O
io_oeb[37] O
io_oeb[3] O
io_oeb[4] O
io_oeb[5] O
io_oeb[6] O
io_oeb[7] O
io_oeb[8] O
io_oeb[9] O
io_out[0] O
io_out[10] O
io_out[11] O
io_out[12] O
io_out[13] O
io_out[14] O
io_out[15] O
io_out[16] O
io_out[17] O
io_out[18] O
io_out[19] O
io_out[1] O
io_out[20] O
io_out[21] O
io_out[22] O
io_out[23] O
io_out[24] O
io_out[25] O
io_out[26] O
io_out[27] O
io_out[28] O
io_out[29] O
io_out[2] O
io_out[30] O
io_out[31] O
io_out[32] O
io_out[33] O
io_out[34] O
io_out[35] O
io_out[36] O
io_out[37] O
io_out[3] O
io_out[4] O
io_out[5] O
io_out[6] O
io_out[7] O
io_out[8] O
io_out[9] O
wb_clk_i I
wb_rst_i I
wbs_ack_o O
wbs_adr_i[0] I
wbs_adr_i[10] I
wbs_adr_i[11] I
wbs_adr_i[12] I
wbs_adr_i[13] I
wbs_adr_i[14] I
wbs_adr_i[15] I
wbs_adr_i[16] I
wbs_adr_i[17] I
wbs_adr_i[18] I
wbs_adr_i[19] I
wbs_adr_i[1] I
wbs_adr_i[20] I
wbs_adr_i[21] I
wbs_adr_i[22] I
wbs_adr_i[23] I
wbs_adr_i[24] I
wbs_adr_i[25] I
wbs_adr_i[26] I
wbs_adr_i[27] I
wbs_adr_i[28] I
wbs_adr_i[29] I
wbs_adr_i[2] I
wbs_adr_i[30] I
wbs_adr_i[31] I
wbs_adr_i[3] I
wbs_adr_i[4] I
wbs_adr_i[5] I
wbs_adr_i[6] I
wbs_adr_i[7] I
wbs_adr_i[8] I
wbs_adr_i[9] I
wbs_cyc_i I
wbs_dat_i[0] I
wbs_dat_i[10] I
wbs_dat_i[11] I
wbs_dat_i[12] I
wbs_dat_i[13] I
wbs_dat_i[14] I
wbs_dat_i[15] I
wbs_dat_i[16] I
wbs_dat_i[17] I
wbs_dat_i[18] I
wbs_dat_i[19] I
wbs_dat_i[1] I
wbs_dat_i[20] I
wbs_dat_i[21] I
wbs_dat_i[22] I
wbs_dat_i[23] I
wbs_dat_i[24] I
wbs_dat_i[25] I
wbs_dat_i[26] I
wbs_dat_i[27] I
wbs_dat_i[28] I
wbs_dat_i[29] I
wbs_dat_i[2] I
wbs_dat_i[30] I
wbs_dat_i[31] I
wbs_dat_i[3] I
wbs_dat_i[4] I
wbs_dat_i[5] I
wbs_dat_i[6] I
wbs_dat_i[7] I
wbs_dat_i[8] I
wbs_dat_i[9] I
wbs_dat_o[0] O
wbs_dat_o[10] O
wbs_dat_o[11] O
wbs_dat_o[12] O
wbs_dat_o[13] O
wbs_dat_o[14] O
wbs_dat_o[15] O
wbs_dat_o[16] O
wbs_dat_o[17] O
wbs_dat_o[18] O
wbs_dat_o[19] O
wbs_dat_o[1] O
wbs_dat_o[20] O
wbs_dat_o[21] O
wbs_dat_o[22] O
wbs_dat_o[23] O
wbs_dat_o[24] O
wbs_dat_o[25] O
wbs_dat_o[26] O
wbs_dat_o[27] O
wbs_dat_o[28] O
wbs_dat_o[29] O
wbs_dat_o[2] O
wbs_dat_o[30] O
wbs_dat_o[31] O
wbs_dat_o[3] O
wbs_dat_o[4] O
wbs_dat_o[5] O
wbs_dat_o[6] O
wbs_dat_o[7] O
wbs_dat_o[8] O
wbs_dat_o[9] O
wbs_sel_i[0] I
wbs_sel_i[1] I
wbs_sel_i[2] I
wbs_sel_i[3] I
wbs_stb_i I
wbs_we_i I

*D_NET *30 0.311548
*CONN
*P io_in[0] I
*I *260:s1 I *D sky130_osu_ring_oscillator_mpr2ca_8_b0r1
*CAP
1 io_in[0] 0.0726609
2 *260:s1 0.00196356
3 *30:9 0.0831129
4 *30:7 0.0811494
5 *30:5 0.0726609
*RES
1 io_in[0] *30:5 269.134 
2 *30:5 *30:7 8 
3 *30:7 *30:9 315.9 
4 *30:9 *260:s1 28.343 
*END

*D_NET *41 0.284692
*CONN
*P io_in[1] I
*I *260:s2 I *D sky130_osu_ring_oscillator_mpr2ca_8_b0r1
*CAP
1 io_in[1] 0.0681285
2 *260:s2 0.00436835
3 *41:9 0.0742174
4 *41:7 0.0698491
5 *41:5 0.0681285
*RES
1 io_in[1] *41:5 252.948 
2 *41:5 *41:7 8 
3 *41:7 *41:9 1598.17 
4 *41:9 *260:s2 46.91 
*END

*D_NET *52 0.291035
*CONN
*P io_in[2] I
*I *260:s3 I *D sky130_osu_ring_oscillator_mpr2ca_8_b0r1
*CAP
1 io_in[2] 0.0709637
2 *260:s3 0.000287346
3 *52:9 0.0745539
4 *52:7 0.0742665
5 *52:5 0.0709637
6 *260:s3 *254:8 0
*RES
1 io_in[2] *52:5 263.123 
2 *52:5 *52:7 8 
3 *52:7 *52:9 248.084 
4 *52:9 *260:s3 21.5675 
*END

*D_NET *61 0.249087
*CONN
*P io_in[3] I
*I *260:s4 I *D sky130_osu_ring_oscillator_mpr2ca_8_b0r1
*CAP
1 io_in[3] 0.0700577
2 *260:s4 0.000311707
3 *61:9 0.0544857
4 *61:7 0.054174
5 *61:5 0.0700577
*RES
1 io_in[3] *61:5 260.204 
2 *61:5 *61:7 8 
3 *61:7 *61:9 210.892 
4 *61:9 *260:s4 21.6275 
*END

*D_NET *62 0.22826
*CONN
*P io_in[4] I
*I *260:s5 I *D sky130_osu_ring_oscillator_mpr2ca_8_b0r1
*CAP
1 io_in[4] 0.0690284
2 *260:s5 0.000332167
3 *62:9 0.0451017
4 *62:7 0.0447695
5 *62:5 0.0690284
*RES
1 io_in[4] *62:5 256.254 
2 *62:5 *62:7 8 
3 *62:7 *62:9 174.335 
4 *62:9 *260:s5 17.1751 
*END

*D_NET *63 0.21164
*CONN
*P io_in[5] I
*I *260:start I *D sky130_osu_ring_oscillator_mpr2ca_8_b0r1
*CAP
1 io_in[5] 0.0011416
2 *260:start 0.000627619
3 *63:17 0.033653
4 *63:15 0.0330254
5 *63:13 0.0710255
6 *63:11 0.0721671
*RES
1 io_in[5] *63:11 32.8218 
2 *63:11 *63:13 1504.23 
3 *63:13 *63:15 15 
4 *63:15 *63:17 756.548 
5 *63:17 *260:start 28.0811 
*END

*D_NET *64 0.0755752
*CONN
*P io_in[6] I
*I *259:select[0] I *D mux16x1_project
*CAP
1 io_in[6] 0.0159907
2 *259:select[0] 0.000128392
3 *64:9 0.0217969
4 *64:7 0.0216685
5 *64:5 0.0159907
*RES
1 io_in[6] *64:5 58.7179 
2 *64:5 *64:7 8 
3 *64:7 *64:9 496.666 
4 *64:9 *259:select[0] 2.93107 
*END

*D_NET *65 0.0514642
*CONN
*P io_in[7] I
*I *259:select[1] I *D mux16x1_project
*CAP
1 io_in[7] 0.0132473
2 *259:select[1] 0.00230193
3 *65:9 0.0124848
4 *65:7 0.0101829
5 *65:5 0.0132473
*RES
1 io_in[7] *65:5 49.4443 
2 *65:5 *65:7 8 
3 *65:7 *65:9 233.264 
4 *65:9 *259:select[1] 31.7242 
*END

*D_NET *66 0.0331697
*CONN
*P io_in[8] I
*I *259:select[2] I *D mux16x1_project
*CAP
1 io_in[8] 0.0143114
2 *259:select[2] 0.00227345
3 *66:7 0.00227345
4 *66:5 0.0143114
*RES
1 io_in[8] *66:5 53.5659 
2 *66:5 *66:7 8 
3 *66:7 *259:select[2] 51.4854 
*END

*D_NET *67 0.0559671
*CONN
*P io_in[9] I
*I *259:select[3] I *D mux16x1_project
*CAP
1 io_in[9] 0.0136928
2 *259:select[3] 0.0142908
3 *67:7 0.0142908
4 *67:5 0.0136928
*RES
1 io_in[9] *67:5 51.2475 
2 *67:5 *67:7 8 
3 *67:7 *259:select[3] 326.157 
*END

*D_NET *106 0.176498
*CONN
*P io_out[0] O
*I *259:y O *D mux16x1_project
*CAP
1 io_out[0] 0.012933
2 *259:y 0.000538095
3 *106:11 0.012933
4 *106:9 0.074778
5 *106:7 0.0753161
*RES
1 *259:y *106:7 9.91707 
2 *106:7 *106:9 290.479 
3 *106:9 *106:11 8 
4 *106:11 io_out[0] 48.2851 
*END

*D_NET *252 0.115272
*CONN
*I *259:data_in[0] I *D mux16x1_project
*I *260:X1_Y1 O *D sky130_osu_ring_oscillator_mpr2ca_8_b0r1
*CAP
1 *259:data_in[0] 0.000922691
2 *260:X1_Y1 0.000206193
3 *252:14 0.0550339
4 *252:12 0.0541112
5 *252:10 0.00239608
6 *252:8 0.00260227
7 *259:data_in[0] *259:data_in[1] 0
8 *259:data_in[0] *257:10 0
*RES
1 *260:X1_Y1 *252:8 42.1584 
2 *252:8 *252:10 54.375 
3 *252:10 *252:12 15 
4 *252:12 *252:14 1144.53 
5 *252:14 *259:data_in[0] 31.6968 
*END

*D_NET *253 0.107294
*CONN
*I *259:data_in[1] I *D mux16x1_project
*I *260:X2_Y1 O *D sky130_osu_ring_oscillator_mpr2ca_8_b0r1
*CAP
1 *259:data_in[1] 0.000922618
2 *260:X2_Y1 6.95304e-05
3 *253:14 0.050869
4 *253:12 0.0499464
5 *253:10 0.00270827
6 *253:8 0.0027778
7 *259:data_in[1] *259:data_in[2] 0
8 *259:data_in[1] *257:10 0
9 *259:data_in[0] *259:data_in[1] 0
*RES
1 *260:X2_Y1 *253:8 39.2739 
2 *253:8 *253:10 61.4179 
3 *253:10 *253:12 15 
4 *253:12 *253:14 1130.23 
5 *253:14 *259:data_in[1] 31.6968 
*END

*D_NET *254 0.113061
*CONN
*I *259:data_in[2] I *D mux16x1_project
*I *260:X3_Y1 O *D sky130_osu_ring_oscillator_mpr2ca_8_b0r1
*CAP
1 *259:data_in[2] 0.000909574
2 *260:X3_Y1 0.000716525
3 *254:18 0.0532888
4 *254:16 0.0523792
5 *254:14 0.0022297
6 *254:12 0.00252529
7 *254:8 0.00101212
8 *259:data_in[2] *257:10 0
9 *259:data_in[1] *259:data_in[2] 0
10 *260:s3 *254:8 0
*RES
1 *260:X3_Y1 *254:8 45.9604 
2 *254:8 *254:12 20.8621 
3 *254:12 *254:14 50.5014 
4 *254:14 *254:16 15 
5 *254:16 *254:18 1108.32 
6 *254:18 *259:data_in[2] 31.3447 
*END

*D_NET *255 0.111968
*CONN
*I *259:data_in[3] I *D mux16x1_project
*I *260:X4_Y1 O *D sky130_osu_ring_oscillator_mpr2ca_8_b0r1
*CAP
1 *259:data_in[3] 0.000900179
2 *260:X4_Y1 0.000151646
3 *255:15 0.0525901
4 *255:13 0.0516899
5 *255:11 0.00324242
6 *255:9 0.00339406
7 *259:data_in[3] *259:data_in[4] 0
8 *259:data_in[3] *257:10 0
*RES
1 *260:X4_Y1 *255:9 18.2066 
2 *255:9 *255:11 73.3907 
3 *255:11 *255:13 15 
4 *255:13 *255:15 1094.03 
5 *255:15 *259:data_in[3] 31.3447 
*END

*D_NET *256 0.104355
*CONN
*I *259:data_in[4] I *D mux16x1_project
*I *260:X5_Y1 O *D sky130_osu_ring_oscillator_mpr2ca_8_b0r1
*CAP
1 *259:data_in[4] 0.000910652
2 *260:X5_Y1 0.000552536
3 *256:15 0.0480866
4 *256:13 0.047176
5 *256:11 0.00353833
6 *256:9 0.00409087
7 *259:data_in[4] *259:data_in[5] 0
8 *259:data_in[4] *257:10 0
9 *259:data_in[3] *259:data_in[4] 0
*RES
1 *260:X5_Y1 *256:9 26.4964 
2 *256:9 *256:11 80.0814 
3 *256:11 *256:13 15 
4 *256:13 *256:15 1068.77 
5 *256:15 *259:data_in[4] 31.3447 
*END

*D_NET *257 0.175732
*CONN
*I *259:data_in[15] I *D mux16x1_project
*I *259:data_in[14] I *D mux16x1_project
*I *259:data_in[13] I *D mux16x1_project
*I *259:data_in[12] I *D mux16x1_project
*I *259:data_in[11] I *D mux16x1_project
*I *259:data_in[10] I *D mux16x1_project
*I *259:data_in[9] I *D mux16x1_project
*I *259:data_in[8] I *D mux16x1_project
*I *259:data_in[7] I *D mux16x1_project
*I *259:data_in[6] I *D mux16x1_project
*I *259:data_in[5] I *D mux16x1_project
*I *258:LO O *D sky130_fd_sc_hd__conb_1
*CAP
1 *259:data_in[15] 0.000330759
2 *259:data_in[14] 0.000661518
3 *259:data_in[13] 0.000661518
4 *259:data_in[12] 0.000661518
5 *259:data_in[11] 0.000661518
6 *259:data_in[10] 0.0011293
7 *259:data_in[9] 0.0011293
8 *259:data_in[8] 0.000661518
9 *259:data_in[7] 0.000661518
10 *259:data_in[6] 0.000661518
11 *259:data_in[5] 0.000808678
12 *258:LO 0
13 *257:10 0.0783581
14 *257:8 0.0778802
15 *257:6 0.0057326
16 *257:4 0.0057326
17 *259:data_in[0] *257:10 0
18 *259:data_in[1] *257:10 0
19 *259:data_in[2] *257:10 0
20 *259:data_in[3] *257:10 0
21 *259:data_in[4] *259:data_in[5] 0
22 *259:data_in[4] *257:10 0
*RES
1 *258:LO *257:4 23 
2 *257:4 *257:6 121.158 
3 *257:6 *257:8 15 
4 *257:8 *257:10 1782.87 
5 *257:10 *259:data_in[5] 9.78827 
6 *259:data_in[5] *259:data_in[6] 1.26933 
7 *259:data_in[6] *259:data_in[7] 1.26933 
8 *259:data_in[7] *259:data_in[8] 1.26933 
9 *259:data_in[8] *259:data_in[9] 1.26933 
10 *259:data_in[9] *259:data_in[10] 25.5623 
11 *259:data_in[10] *259:data_in[11] 1.26933 
12 *259:data_in[11] *259:data_in[12] 1.26933 
13 *259:data_in[12] *259:data_in[13] 1.26933 
14 *259:data_in[13] *259:data_in[14] 1.26933 
15 *259:data_in[14] *259:data_in[15] 1.26933 
*END
