*SPEF "ieee 1481-1999"
*DESIGN "user_project_wrapper"
*DATE "11:11:11 Fri 11 11, 1111"
*VENDOR "OpenRCX"
*PROGRAM "Parallel Extraction"
*VERSION "1.0"
*DESIGN_FLOW "NAME_SCOPE LOCAL" "PIN_CAP NONE"
*DIVIDER /
*DELIMITER :
*BUS_DELIMITER []
*T_UNIT 1 NS
*C_UNIT 1 PF
*R_UNIT 1 OHM
*L_UNIT 1 HENRY

*NAME_MAP
*1 analog_io[0]
*2 analog_io[10]
*3 analog_io[11]
*4 analog_io[12]
*5 analog_io[13]
*6 analog_io[14]
*7 analog_io[15]
*8 analog_io[16]
*9 analog_io[17]
*10 analog_io[18]
*11 analog_io[19]
*12 analog_io[1]
*13 analog_io[20]
*14 analog_io[21]
*15 analog_io[22]
*16 analog_io[23]
*17 analog_io[24]
*18 analog_io[25]
*19 analog_io[26]
*20 analog_io[27]
*21 analog_io[28]
*22 analog_io[2]
*23 analog_io[3]
*24 analog_io[4]
*25 analog_io[5]
*26 analog_io[6]
*27 analog_io[7]
*28 analog_io[8]
*29 analog_io[9]
*30 io_in[0]
*31 io_in[10]
*32 io_in[11]
*33 io_in[12]
*34 io_in[13]
*35 io_in[14]
*36 io_in[15]
*37 io_in[16]
*38 io_in[17]
*39 io_in[18]
*40 io_in[19]
*41 io_in[1]
*42 io_in[20]
*43 io_in[21]
*44 io_in[22]
*45 io_in[23]
*46 io_in[24]
*47 io_in[25]
*48 io_in[26]
*49 io_in[27]
*50 io_in[28]
*51 io_in[29]
*52 io_in[2]
*53 io_in[30]
*54 io_in[31]
*55 io_in[32]
*56 io_in[33]
*57 io_in[34]
*58 io_in[35]
*59 io_in[36]
*60 io_in[37]
*61 io_in[3]
*62 io_in[4]
*63 io_in[5]
*64 io_in[6]
*65 io_in[7]
*66 io_in[8]
*67 io_in[9]
*68 io_oeb[0]
*69 io_oeb[10]
*70 io_oeb[11]
*71 io_oeb[12]
*72 io_oeb[13]
*73 io_oeb[14]
*74 io_oeb[15]
*75 io_oeb[16]
*76 io_oeb[17]
*77 io_oeb[18]
*78 io_oeb[19]
*79 io_oeb[1]
*80 io_oeb[20]
*81 io_oeb[21]
*82 io_oeb[22]
*83 io_oeb[23]
*84 io_oeb[24]
*85 io_oeb[25]
*86 io_oeb[26]
*87 io_oeb[27]
*88 io_oeb[28]
*89 io_oeb[29]
*90 io_oeb[2]
*91 io_oeb[30]
*92 io_oeb[31]
*93 io_oeb[32]
*94 io_oeb[33]
*95 io_oeb[34]
*96 io_oeb[35]
*97 io_oeb[36]
*98 io_oeb[37]
*99 io_oeb[3]
*100 io_oeb[4]
*101 io_oeb[5]
*102 io_oeb[6]
*103 io_oeb[7]
*104 io_oeb[8]
*105 io_oeb[9]
*106 io_out[0]
*107 io_out[10]
*108 io_out[11]
*109 io_out[12]
*110 io_out[13]
*111 io_out[14]
*112 io_out[15]
*113 io_out[16]
*114 io_out[17]
*115 io_out[18]
*116 io_out[19]
*117 io_out[1]
*118 io_out[20]
*119 io_out[21]
*120 io_out[22]
*121 io_out[23]
*122 io_out[24]
*123 io_out[25]
*124 io_out[26]
*125 io_out[27]
*126 io_out[28]
*127 io_out[29]
*128 io_out[2]
*129 io_out[30]
*130 io_out[31]
*131 io_out[32]
*132 io_out[33]
*133 io_out[34]
*134 io_out[35]
*135 io_out[36]
*136 io_out[37]
*137 io_out[3]
*138 io_out[4]
*139 io_out[5]
*140 io_out[6]
*141 io_out[7]
*142 io_out[8]
*143 io_out[9]
*146 wb_clk_i
*147 wb_rst_i
*148 wbs_ack_o
*149 wbs_adr_i[0]
*150 wbs_adr_i[10]
*151 wbs_adr_i[11]
*152 wbs_adr_i[12]
*153 wbs_adr_i[13]
*154 wbs_adr_i[14]
*155 wbs_adr_i[15]
*156 wbs_adr_i[16]
*157 wbs_adr_i[17]
*158 wbs_adr_i[18]
*159 wbs_adr_i[19]
*160 wbs_adr_i[1]
*161 wbs_adr_i[20]
*162 wbs_adr_i[21]
*163 wbs_adr_i[22]
*164 wbs_adr_i[23]
*165 wbs_adr_i[24]
*166 wbs_adr_i[25]
*167 wbs_adr_i[26]
*168 wbs_adr_i[27]
*169 wbs_adr_i[28]
*170 wbs_adr_i[29]
*171 wbs_adr_i[2]
*172 wbs_adr_i[30]
*173 wbs_adr_i[31]
*174 wbs_adr_i[3]
*175 wbs_adr_i[4]
*176 wbs_adr_i[5]
*177 wbs_adr_i[6]
*178 wbs_adr_i[7]
*179 wbs_adr_i[8]
*180 wbs_adr_i[9]
*181 wbs_cyc_i
*182 wbs_dat_i[0]
*183 wbs_dat_i[10]
*184 wbs_dat_i[11]
*185 wbs_dat_i[12]
*186 wbs_dat_i[13]
*187 wbs_dat_i[14]
*188 wbs_dat_i[15]
*189 wbs_dat_i[16]
*190 wbs_dat_i[17]
*191 wbs_dat_i[18]
*192 wbs_dat_i[19]
*193 wbs_dat_i[1]
*194 wbs_dat_i[20]
*195 wbs_dat_i[21]
*196 wbs_dat_i[22]
*197 wbs_dat_i[23]
*198 wbs_dat_i[24]
*199 wbs_dat_i[25]
*200 wbs_dat_i[26]
*201 wbs_dat_i[27]
*202 wbs_dat_i[28]
*203 wbs_dat_i[29]
*204 wbs_dat_i[2]
*205 wbs_dat_i[30]
*206 wbs_dat_i[31]
*207 wbs_dat_i[3]
*208 wbs_dat_i[4]
*209 wbs_dat_i[5]
*210 wbs_dat_i[6]
*211 wbs_dat_i[7]
*212 wbs_dat_i[8]
*213 wbs_dat_i[9]
*214 wbs_dat_o[0]
*215 wbs_dat_o[10]
*216 wbs_dat_o[11]
*217 wbs_dat_o[12]
*218 wbs_dat_o[13]
*219 wbs_dat_o[14]
*220 wbs_dat_o[15]
*221 wbs_dat_o[16]
*222 wbs_dat_o[17]
*223 wbs_dat_o[18]
*224 wbs_dat_o[19]
*225 wbs_dat_o[1]
*226 wbs_dat_o[20]
*227 wbs_dat_o[21]
*228 wbs_dat_o[22]
*229 wbs_dat_o[23]
*230 wbs_dat_o[24]
*231 wbs_dat_o[25]
*232 wbs_dat_o[26]
*233 wbs_dat_o[27]
*234 wbs_dat_o[28]
*235 wbs_dat_o[29]
*236 wbs_dat_o[2]
*237 wbs_dat_o[30]
*238 wbs_dat_o[31]
*239 wbs_dat_o[3]
*240 wbs_dat_o[4]
*241 wbs_dat_o[5]
*242 wbs_dat_o[6]
*243 wbs_dat_o[7]
*244 wbs_dat_o[8]
*245 wbs_dat_o[9]
*246 wbs_sel_i[0]
*247 wbs_sel_i[1]
*248 wbs_sel_i[2]
*249 wbs_sel_i[3]
*250 wbs_stb_i
*251 wbs_we_i
*252 x1\[0\]
*253 x1\[10\]
*254 x1\[11\]
*255 x1\[12\]
*256 x1\[13\]
*257 x1\[14\]
*258 x1\[15\]
*259 x1\[1\]
*260 x1\[2\]
*261 x1\[3\]
*262 x1\[4\]
*263 x1\[5\]
*264 x1\[6\]
*265 x1\[7\]
*266 x1\[8\]
*267 x1\[9\]
*268 x2\[0\]
*269 x2\[10\]
*270 x2\[11\]
*271 x2\[12\]
*272 x2\[13\]
*273 x2\[14\]
*274 x2\[15\]
*275 x2\[1\]
*276 x2\[2\]
*277 x2\[3\]
*278 x2\[4\]
*279 x2\[5\]
*280 x2\[6\]
*281 x2\[7\]
*282 x2\[8\]
*283 x2\[9\]
*284 x3\[0\]
*285 x3\[10\]
*286 x3\[11\]
*287 x3\[12\]
*288 x3\[13\]
*289 x3\[14\]
*290 x3\[15\]
*291 x3\[1\]
*292 x3\[2\]
*293 x3\[3\]
*294 x3\[4\]
*295 x3\[5\]
*296 x3\[6\]
*297 x3\[7\]
*298 x3\[8\]
*299 x3\[9\]
*300 x4\[0\]
*301 x4\[10\]
*302 x4\[11\]
*303 x4\[12\]
*304 x4\[13\]
*305 x4\[14\]
*306 x4\[15\]
*307 x4\[1\]
*308 x4\[2\]
*309 x4\[3\]
*310 x4\[4\]
*311 x4\[5\]
*312 x4\[6\]
*313 x4\[7\]
*314 x4\[8\]
*315 x4\[9\]
*316 x5\[0\]
*317 x5\[10\]
*318 x5\[11\]
*319 x5\[12\]
*320 x5\[13\]
*321 x5\[14\]
*322 x5\[15\]
*323 x5\[1\]
*324 x5\[2\]
*325 x5\[3\]
*326 x5\[4\]
*327 x5\[5\]
*328 x5\[6\]
*329 x5\[7\]
*330 x5\[8\]
*331 x5\[9\]
*332 mprj1
*333 mprj2
*334 mprj3
*335 mprj4
*336 mprj5
*337 ro1
*338 ro11
*339 ro12
*340 ro13
*341 ro14
*342 ro15
*343 ro3
*344 ro4
*345 ro5
*346 ro6
*347 ro7

*PORTS
analog_io[0] I
analog_io[10] I
analog_io[11] I
analog_io[12] I
analog_io[13] I
analog_io[14] I
analog_io[15] I
analog_io[16] I
analog_io[17] I
analog_io[18] I
analog_io[19] I
analog_io[1] I
analog_io[20] I
analog_io[21] I
analog_io[22] I
analog_io[23] I
analog_io[24] I
analog_io[25] I
analog_io[26] I
analog_io[27] I
analog_io[28] I
analog_io[2] I
analog_io[3] I
analog_io[4] I
analog_io[5] I
analog_io[6] I
analog_io[7] I
analog_io[8] I
analog_io[9] I
io_in[0] I
io_in[10] I
io_in[11] I
io_in[12] I
io_in[13] I
io_in[14] I
io_in[15] I
io_in[16] I
io_in[17] I
io_in[18] I
io_in[19] I
io_in[1] I
io_in[20] I
io_in[21] I
io_in[22] I
io_in[23] I
io_in[24] I
io_in[25] I
io_in[26] I
io_in[27] I
io_in[28] I
io_in[29] I
io_in[2] I
io_in[30] I
io_in[31] I
io_in[32] I
io_in[33] I
io_in[34] I
io_in[35] I
io_in[36] I
io_in[37] I
io_in[3] I
io_in[4] I
io_in[5] I
io_in[6] I
io_in[7] I
io_in[8] I
io_in[9] I
io_oeb[0] O
io_oeb[10] O
io_oeb[11] O
io_oeb[12] O
io_oeb[13] O
io_oeb[14] O
io_oeb[15] O
io_oeb[16] O
io_oeb[17] O
io_oeb[18] O
io_oeb[19] O
io_oeb[1] O
io_oeb[20] O
io_oeb[21] O
io_oeb[22] O
io_oeb[23] O
io_oeb[24] O
io_oeb[25] O
io_oeb[26] O
io_oeb[27] O
io_oeb[28] O
io_oeb[29] O
io_oeb[2] O
io_oeb[30] O
io_oeb[31] O
io_oeb[32] O
io_oeb[33] O
io_oeb[34] O
io_oeb[35] O
io_oeb[36] O
io_oeb[37] O
io_oeb[3] O
io_oeb[4] O
io_oeb[5] O
io_oeb[6] O
io_oeb[7] O
io_oeb[8] O
io_oeb[9] O
io_out[0] O
io_out[10] O
io_out[11] O
io_out[12] O
io_out[13] O
io_out[14] O
io_out[15] O
io_out[16] O
io_out[17] O
io_out[18] O
io_out[19] O
io_out[1] O
io_out[20] O
io_out[21] O
io_out[22] O
io_out[23] O
io_out[24] O
io_out[25] O
io_out[26] O
io_out[27] O
io_out[28] O
io_out[29] O
io_out[2] O
io_out[30] O
io_out[31] O
io_out[32] O
io_out[33] O
io_out[34] O
io_out[35] O
io_out[36] O
io_out[37] O
io_out[3] O
io_out[4] O
io_out[5] O
io_out[6] O
io_out[7] O
io_out[8] O
io_out[9] O
wb_clk_i I
wb_rst_i I
wbs_ack_o O
wbs_adr_i[0] I
wbs_adr_i[10] I
wbs_adr_i[11] I
wbs_adr_i[12] I
wbs_adr_i[13] I
wbs_adr_i[14] I
wbs_adr_i[15] I
wbs_adr_i[16] I
wbs_adr_i[17] I
wbs_adr_i[18] I
wbs_adr_i[19] I
wbs_adr_i[1] I
wbs_adr_i[20] I
wbs_adr_i[21] I
wbs_adr_i[22] I
wbs_adr_i[23] I
wbs_adr_i[24] I
wbs_adr_i[25] I
wbs_adr_i[26] I
wbs_adr_i[27] I
wbs_adr_i[28] I
wbs_adr_i[29] I
wbs_adr_i[2] I
wbs_adr_i[30] I
wbs_adr_i[31] I
wbs_adr_i[3] I
wbs_adr_i[4] I
wbs_adr_i[5] I
wbs_adr_i[6] I
wbs_adr_i[7] I
wbs_adr_i[8] I
wbs_adr_i[9] I
wbs_cyc_i I
wbs_dat_i[0] I
wbs_dat_i[10] I
wbs_dat_i[11] I
wbs_dat_i[12] I
wbs_dat_i[13] I
wbs_dat_i[14] I
wbs_dat_i[15] I
wbs_dat_i[16] I
wbs_dat_i[17] I
wbs_dat_i[18] I
wbs_dat_i[19] I
wbs_dat_i[1] I
wbs_dat_i[20] I
wbs_dat_i[21] I
wbs_dat_i[22] I
wbs_dat_i[23] I
wbs_dat_i[24] I
wbs_dat_i[25] I
wbs_dat_i[26] I
wbs_dat_i[27] I
wbs_dat_i[28] I
wbs_dat_i[29] I
wbs_dat_i[2] I
wbs_dat_i[30] I
wbs_dat_i[31] I
wbs_dat_i[3] I
wbs_dat_i[4] I
wbs_dat_i[5] I
wbs_dat_i[6] I
wbs_dat_i[7] I
wbs_dat_i[8] I
wbs_dat_i[9] I
wbs_dat_o[0] O
wbs_dat_o[10] O
wbs_dat_o[11] O
wbs_dat_o[12] O
wbs_dat_o[13] O
wbs_dat_o[14] O
wbs_dat_o[15] O
wbs_dat_o[16] O
wbs_dat_o[17] O
wbs_dat_o[18] O
wbs_dat_o[19] O
wbs_dat_o[1] O
wbs_dat_o[20] O
wbs_dat_o[21] O
wbs_dat_o[22] O
wbs_dat_o[23] O
wbs_dat_o[24] O
wbs_dat_o[25] O
wbs_dat_o[26] O
wbs_dat_o[27] O
wbs_dat_o[28] O
wbs_dat_o[29] O
wbs_dat_o[2] O
wbs_dat_o[30] O
wbs_dat_o[31] O
wbs_dat_o[3] O
wbs_dat_o[4] O
wbs_dat_o[5] O
wbs_dat_o[6] O
wbs_dat_o[7] O
wbs_dat_o[8] O
wbs_dat_o[9] O
wbs_sel_i[0] I
wbs_sel_i[1] I
wbs_sel_i[2] I
wbs_sel_i[3] I
wbs_stb_i I
wbs_we_i I

*D_NET *30 0.361792
*CONN
*P io_in[0] I
*I *337:s1 I *D sky130_osu_ring_oscillator_mpr2aa_8_b0r1
*I *343:s1 I *D sky130_osu_ring_oscillator_mpr2ca_8_b0r1
*I *344:s1 I *D sky130_osu_ring_oscillator_mpr2ct_8_b0r1
*I *345:s1 I *D sky130_osu_ring_oscillator_mpr2ea_8_b0r1
*I *346:s1 I *D sky130_osu_ring_oscillator_mpr2et_8_b0r1
*I *347:s1 I *D sky130_osu_ring_oscillator_mpr2xa_8_b0r1
*I *338:s1 I *D sky130_osu_ring_oscillator_mpr2ca_8_b0r2
*I *339:s1 I *D sky130_osu_ring_oscillator_mpr2ct_8_b0r2
*I *340:s1 I *D sky130_osu_ring_oscillator_mpr2ea_8_b0r2
*I *341:s1 I *D sky130_osu_ring_oscillator_mpr2et_8_b0r2
*I *342:s1 I *D sky130_osu_ring_oscillator_mpr2xa_8_b0r2
*CAP
1 io_in[0] 0.0688672
2 *337:s1 0.00924922
3 *343:s1 0.000208492
4 *344:s1 0.000173844
5 *345:s1 0.00023755
6 *346:s1 0.000139438
7 *347:s1 0.000238105
8 *338:s1 0.000151289
9 *339:s1 3.93512e-05
10 *340:s1 0.000237878
11 *341:s1 0.000132692
12 *342:s1 0.000238499
13 *30:172 0.0139376
14 *30:158 0.00969301
15 *30:134 0.0093629
16 *30:120 0.00945994
17 *30:96 0.0230702
18 *30:82 0.022126
19 *30:67 0.00927335
20 *30:43 0.00948783
21 *30:27 0.00939777
22 *30:13 0.00547826
23 *30:9 0.0459019
24 *30:7 0.0455342
25 *30:5 0.0688672
26 *342:s1 *257:12 0
27 *345:s1 *262:8 0
28 *347:s1 *264:12 0
29 *30:43 *255:16 0.000288562
30 *30:158 *260:20 0
31 *30:172 *260:20 0
*RES
1 io_in[0] *30:5 225.304 
2 *30:5 *30:7 3.41 
3 *30:7 *30:9 159.192 
4 *30:9 *30:13 1.07473 
5 *30:13 *342:s1 8.07714 
6 *30:13 *30:27 16.4531 
7 *30:27 *341:s1 8.38071 
8 *30:27 *30:43 15.7074 
9 *30:43 *340:s1 8.68301 
10 *30:43 *30:67 16.5785 
11 *30:67 *339:s1 6.90303 
12 *30:67 *30:82 15.7325 
13 *30:82 *338:s1 8.62242 
14 *30:82 *30:96 61.7298 
15 *30:96 *347:s1 11.0548 
16 *30:96 *30:120 17.5498 
17 *30:120 *346:s1 8.25189 
18 *30:120 *30:134 14.6421 
19 *30:134 *345:s1 11.0146 
20 *30:134 *30:158 17.1237 
21 *30:158 *344:s1 8.71681 
22 *30:158 *30:172 15.6009 
23 *30:172 *343:s1 10.162 
24 *30:172 *337:s1 38.4463 
*END

*D_NET *41 0.402389
*CONN
*P io_in[1] I
*I *344:s2 I *D sky130_osu_ring_oscillator_mpr2ct_8_b0r1
*I *337:s2 I *D sky130_osu_ring_oscillator_mpr2aa_8_b0r1
*I *343:s2 I *D sky130_osu_ring_oscillator_mpr2ca_8_b0r1
*I *345:s2 I *D sky130_osu_ring_oscillator_mpr2ea_8_b0r1
*I *346:s2 I *D sky130_osu_ring_oscillator_mpr2et_8_b0r1
*I *347:s2 I *D sky130_osu_ring_oscillator_mpr2xa_8_b0r1
*I *338:s2 I *D sky130_osu_ring_oscillator_mpr2ca_8_b0r2
*I *339:s2 I *D sky130_osu_ring_oscillator_mpr2ct_8_b0r2
*I *340:s2 I *D sky130_osu_ring_oscillator_mpr2ea_8_b0r2
*I *341:s2 I *D sky130_osu_ring_oscillator_mpr2et_8_b0r2
*I *342:s2 I *D sky130_osu_ring_oscillator_mpr2xa_8_b0r2
*CAP
1 io_in[1] 0.0683775
2 *344:s2 7.21148e-05
3 *337:s2 0.0103423
4 *343:s2 0.000185834
5 *345:s2 0.000476037
6 *346:s2 0.0121262
7 *347:s2 0.000295263
8 *338:s2 9.76407e-05
9 *339:s2 0.000300702
10 *340:s2 0.000463942
11 *341:s2 0.012079
12 *342:s2 0.000174111
13 *41:171 0.0163426
14 *41:165 0.0120018
15 *41:143 0.012266
16 *41:101 0.0301124
17 *41:99 0.0233657
18 *41:87 0.00597301
19 *41:72 0.0118769
20 *41:50 0.0118825
21 *41:9 0.0551805
22 *41:7 0.0486451
23 *41:5 0.0683775
24 *337:s2 *252:14 0
25 *347:s2 *280:8 0
26 *41:9 *273:8 0.000204814
27 *41:72 *270:12 0.000501862
28 *41:87 *52:86 0
29 *41:165 *277:12 0.000667633
30 *41:171 *252:14 0
*RES
1 io_in[1] *41:5 223.574 
2 *41:5 *41:7 3.41 
3 *41:7 *41:9 128.633 
4 *41:9 *342:s2 7.86094 
5 *41:9 *341:s2 26.8138 
6 *341:s2 *41:50 24.1261 
7 *41:50 *340:s2 15.7819 
8 *41:50 *41:72 15.7074 
9 *41:72 *339:s2 7.4545 
10 *41:72 *41:87 19.8161 
11 *41:87 *338:s2 4.34125 
12 *41:87 *41:99 3.41 
13 *41:99 *41:101 61.7298 
14 *41:101 *347:s2 11.7519 
15 *41:101 *346:s2 27.3951 
16 *346:s2 *41:143 24.6602 
17 *41:143 *345:s2 9.21362 
18 *41:143 *41:165 19.8866 
19 *41:165 *41:171 18.6678 
20 *41:171 *343:s2 8.55099 
21 *41:171 *337:s2 38.5998 
22 *41:165 *344:s2 4.8475 
*END

*D_NET *52 0.338561
*CONN
*P io_in[2] I
*I *337:s3 I *D sky130_osu_ring_oscillator_mpr2aa_8_b0r1
*I *343:s3 I *D sky130_osu_ring_oscillator_mpr2ca_8_b0r1
*I *344:s3 I *D sky130_osu_ring_oscillator_mpr2ct_8_b0r1
*I *345:s3 I *D sky130_osu_ring_oscillator_mpr2ea_8_b0r1
*I *346:s3 I *D sky130_osu_ring_oscillator_mpr2et_8_b0r1
*I *347:s3 I *D sky130_osu_ring_oscillator_mpr2xa_8_b0r1
*I *338:s3 I *D sky130_osu_ring_oscillator_mpr2ca_8_b0r2
*I *339:s3 I *D sky130_osu_ring_oscillator_mpr2ct_8_b0r2
*I *340:s3 I *D sky130_osu_ring_oscillator_mpr2ea_8_b0r2
*I *341:s3 I *D sky130_osu_ring_oscillator_mpr2et_8_b0r2
*I *342:s3 I *D sky130_osu_ring_oscillator_mpr2xa_8_b0r2
*CAP
1 io_in[2] 0.067033
2 *337:s3 0.00957934
3 *343:s3 0.000193783
4 *344:s3 0.000149904
5 *345:s3 0.000217891
6 *346:s3 4.76999e-05
7 *347:s3 0.00019584
8 *338:s3 0.000118804
9 *339:s3 2.39814e-05
10 *340:s3 0.000177538
11 *341:s3 7.35191e-05
12 *342:s3 0.000550022
13 *52:179 0.0145372
14 *52:165 0.0103854
15 *52:141 0.0105079
16 *52:126 0.0103084
17 *52:104 0.0220313
18 *52:102 0.017691
19 *52:86 0.00612379
20 *52:61 0.00960632
21 *52:41 0.0110591
22 *52:22 0.0111429
23 *52:9 0.0375216
24 *52:7 0.0319088
25 *52:5 0.067033
26 *345:s3 *294:12 0
27 *52:22 *288:12 0.000342845
28 *41:87 *52:86 0
*RES
1 io_in[2] *52:5 219.827 
2 *52:5 *52:7 3.41 
3 *52:7 *52:9 97.9511 
4 *52:9 *342:s3 8.60835 
5 *52:9 *52:22 15.2813 
6 *52:22 *341:s3 7.01035 
7 *52:22 *52:41 21.1572 
8 *52:41 *340:s3 6.4216 
9 *52:41 *52:61 22.5274 
10 *52:61 *339:s3 3.49303 
11 *52:61 *52:86 20.3488 
12 *52:86 *338:s3 8.36285 
13 *52:86 *52:102 4.69373 
14 *52:102 *52:104 57.4559 
15 *52:104 *347:s3 10.0012 
16 *52:104 *52:126 17.5749 
17 *52:126 *346:s3 11.537 
18 *52:126 *52:141 14.8551 
19 *52:141 *345:s3 10.6129 
20 *52:141 *52:165 16.6913 
21 *52:165 *344:s3 8.59117 
22 *52:165 *52:179 15.8139 
23 *52:179 *343:s3 7.28373 
24 *52:179 *337:s3 38.1917 
*END

*D_NET *61 0.39879
*CONN
*P io_in[3] I
*I *338:s4 I *D sky130_osu_ring_oscillator_mpr2ca_8_b0r2
*I *337:s4 I *D sky130_osu_ring_oscillator_mpr2aa_8_b0r1
*I *343:s4 I *D sky130_osu_ring_oscillator_mpr2ca_8_b0r1
*I *344:s4 I *D sky130_osu_ring_oscillator_mpr2ct_8_b0r1
*I *345:s4 I *D sky130_osu_ring_oscillator_mpr2ea_8_b0r1
*I *346:s4 I *D sky130_osu_ring_oscillator_mpr2et_8_b0r1
*I *347:s4 I *D sky130_osu_ring_oscillator_mpr2xa_8_b0r1
*I *339:s4 I *D sky130_osu_ring_oscillator_mpr2ct_8_b0r2
*I *340:s4 I *D sky130_osu_ring_oscillator_mpr2ea_8_b0r2
*I *341:s4 I *D sky130_osu_ring_oscillator_mpr2et_8_b0r2
*I *342:s4 I *D sky130_osu_ring_oscillator_mpr2xa_8_b0r2
*CAP
1 io_in[3] 0.000777966
2 *338:s4 6.346e-05
3 *337:s4 0.0091564
4 *343:s4 0.000194949
5 *344:s4 0.000244472
6 *345:s4 0.000188988
7 *346:s4 0.000211463
8 *347:s4 0.000285713
9 *339:s4 3.93512e-05
10 *340:s4 9.68482e-05
11 *341:s4 3.45251e-05
12 *342:s4 0.00115982
13 *61:175 0.0139846
14 *61:153 0.00968524
15 *61:135 0.00917423
16 *61:120 0.00812121
17 *61:92 0.0192126
18 *61:90 0.0153713
19 *61:86 0.00467236
20 *61:69 0.0092303
21 *61:58 0.00979124
22 *61:39 0.00904921
23 *61:13 0.0456878
24 *61:11 0.0404493
25 *61:9 0.0156219
26 *61:7 0.0163998
27 *337:s4 *300:14 0
28 *345:s4 *310:12 0
29 *347:s4 *312:11 0
30 *61:9 *62:9 0.00978947
31 *61:13 *342:s5 0.00141128
32 *61:13 *62:13 0.137447
33 *61:58 *303:12 0.000242114
34 *61:86 *62:100 0
35 *61:92 *295:20 0.0054639
36 *61:92 *309:14 0
37 *61:120 *295:20 0.00553155
38 *61:120 *309:14 0
39 *61:135 *309:14 0
40 *61:153 *300:14 0
41 *61:153 *309:14 0
42 *61:175 *300:14 0
*RES
1 io_in[3] *61:7 5.99187 
2 *61:7 *61:9 389.304 
3 *61:9 *61:11 3.41 
4 *61:11 *61:13 214.553 
5 *61:13 *342:s4 20.253 
6 *61:13 *61:39 17.0933 
7 *61:39 *341:s4 6.89285 
8 *61:39 *61:58 17.3681 
9 *61:58 *340:s4 7.08868 
10 *61:58 *61:69 16.1335 
11 *61:69 *339:s4 6.90303 
12 *61:69 *61:86 19.3555 
13 *61:86 *61:90 3.8894 
14 *61:90 *61:92 61.5167 
15 *61:92 *347:s4 11.9477 
16 *61:92 *61:120 17.1801 
17 *61:120 *346:s4 12.5765 
18 *61:120 *61:135 14.9617 
19 *61:135 *345:s4 9.87625 
20 *61:135 *61:153 16.1335 
21 *61:153 *344:s4 10.5561 
22 *61:153 *61:175 16.1335 
23 *61:175 *343:s4 7.28765 
24 *61:175 *337:s4 38.3586 
25 *61:86 *338:s4 3.56667 
*END

*D_NET *62 0.383265
*CONN
*P io_in[4] I
*I *339:s5 I *D sky130_osu_ring_oscillator_mpr2ct_8_b0r2
*I *337:s5 I *D sky130_osu_ring_oscillator_mpr2aa_8_b0r1
*I *343:s5 I *D sky130_osu_ring_oscillator_mpr2ca_8_b0r1
*I *344:s5 I *D sky130_osu_ring_oscillator_mpr2ct_8_b0r1
*I *345:s5 I *D sky130_osu_ring_oscillator_mpr2ea_8_b0r1
*I *346:s5 I *D sky130_osu_ring_oscillator_mpr2et_8_b0r1
*I *347:s5 I *D sky130_osu_ring_oscillator_mpr2xa_8_b0r1
*I *338:s5 I *D sky130_osu_ring_oscillator_mpr2ca_8_b0r2
*I *340:s5 I *D sky130_osu_ring_oscillator_mpr2ea_8_b0r2
*I *341:s5 I *D sky130_osu_ring_oscillator_mpr2et_8_b0r2
*I *342:s5 I *D sky130_osu_ring_oscillator_mpr2xa_8_b0r2
*CAP
1 io_in[4] 0.00073504
2 *339:s5 3.06513e-05
3 *337:s5 0.00925934
4 *343:s5 0.000208184
5 *344:s5 0.000167234
6 *345:s5 0.000238424
7 *346:s5 0.000404628
8 *347:s5 0.000221714
9 *338:s5 0.000116838
10 *340:s5 0.000239816
11 *341:s5 0.000127382
12 *342:s5 0.00101241
13 *62:207 0.0141093
14 *62:189 0.00967022
15 *62:169 0.00941528
16 *62:146 0.00833588
17 *62:118 0.0139455
18 *62:116 0.0112922
19 *62:100 0.00605537
20 *62:88 0.00944571
21 *62:68 0.00514612
22 *62:62 0.00426966
23 *62:60 0.00483176
24 *62:43 0.00498543
25 *62:13 0.0450186
26 *62:11 0.0399561
27 *62:9 0.00696473
28 *62:7 0.00769977
29 *337:s5 *300:14 0
30 *62:9 *63:11 0
31 *62:116 *311:14 0.000123131
32 *62:118 *300:14 0.00337822
33 *62:118 *309:14 0
34 *62:118 *311:14 0.0111421
35 *62:146 *300:14 0.000186274
36 *62:146 *311:12 0.000354262
37 *62:146 *311:14 0.00553047
38 *62:169 *300:14 0
39 *62:207 *300:14 0
40 *61:9 *62:9 0.00978947
41 *61:13 *342:s5 0.00141128
42 *61:13 *62:13 0.137447
43 *61:86 *62:100 0
*RES
1 io_in[4] *62:7 5.84773 
2 *62:7 *62:9 212.018 
3 *62:9 *62:11 3.41 
4 *62:11 *62:13 212.103 
5 *62:13 *342:s5 22.0389 
6 *62:13 *62:43 16.9867 
7 *62:43 *341:s5 7.1913 
8 *62:43 *62:60 9.5131 
9 *62:60 *62:62 81.4821 
10 *62:62 *62:68 4.94393 
11 *62:68 *340:s5 7.64482 
12 *62:68 *62:88 22.5274 
13 *62:88 *62:100 20.3519 
14 *62:100 *338:s5 8.32268 
15 *62:100 *62:116 4.40547 
16 *62:116 *62:118 57.4559 
17 *62:118 *347:s5 14.7245 
18 *62:118 *62:146 17.3242 
19 *62:146 *346:s5 13.2251 
20 *62:146 *62:169 15.5821 
21 *62:169 *345:s5 11.0325 
22 *62:169 *62:189 16.3466 
23 *62:189 *344:s5 8.94831 
24 *62:189 *62:207 16.2338 
25 *62:207 *343:s5 10.2468 
26 *62:207 *337:s5 39.6079 
27 *62:88 *339:s5 3.49303 
*END

*D_NET *63 0.274297
*CONN
*P io_in[5] I
*I *342:start I *D sky130_osu_ring_oscillator_mpr2xa_8_b0r2
*I *337:start I *D sky130_osu_ring_oscillator_mpr2aa_8_b0r1
*I *343:start I *D sky130_osu_ring_oscillator_mpr2ca_8_b0r1
*I *344:start I *D sky130_osu_ring_oscillator_mpr2ct_8_b0r1
*I *345:start I *D sky130_osu_ring_oscillator_mpr2ea_8_b0r1
*I *346:start I *D sky130_osu_ring_oscillator_mpr2et_8_b0r1
*I *347:start I *D sky130_osu_ring_oscillator_mpr2xa_8_b0r1
*I *338:start I *D sky130_osu_ring_oscillator_mpr2ca_8_b0r2
*I *339:start I *D sky130_osu_ring_oscillator_mpr2ct_8_b0r2
*I *340:start I *D sky130_osu_ring_oscillator_mpr2ea_8_b0r2
*I *341:start I *D sky130_osu_ring_oscillator_mpr2et_8_b0r2
*CAP
1 io_in[5] 0.00198507
2 *342:start 4.33718e-05
3 *337:start 0.00061821
4 *343:start 0.000545924
5 *344:start 0.000549188
6 *345:start 0.000532248
7 *346:start 0.000559914
8 *347:start 0.000628936
9 *338:start 0.000633926
10 *339:start 0.00060282
11 *340:start 0.000604685
12 *341:start 0.000606318
13 *63:143 0.00928192
14 *63:130 0.0135831
15 *63:117 0.00929076
16 *63:105 0.00927922
17 *63:93 0.00941048
18 *63:79 0.0224502
19 *63:61 0.0223656
20 *63:49 0.00934977
21 *63:37 0.00935163
22 *63:25 0.00936812
23 *63:23 0.00492125
24 *63:19 0.00070882
25 *63:13 0.0675821
26 *63:11 0.0694433
27 *62:9 *63:11 0
*RES
1 io_in[5] *63:11 37.5856 
2 *63:11 *63:13 1290.18 
3 *63:13 *63:19 2.91071 
4 *63:19 *63:23 14.8929 
5 *63:23 *63:25 89.6786 
6 *63:25 *341:start 15.9866 
7 *63:25 *63:37 89.375 
8 *63:37 *340:start 15.9554 
9 *63:37 *63:49 89.375 
10 *63:49 *339:start 15.9196 
11 *63:49 *63:61 89.375 
12 *63:61 *338:start 17.4911 
13 *63:61 *63:79 355 
14 *63:79 *347:start 16.4196 
15 *63:79 *63:93 90.8929 
16 *63:93 *346:start 15.0982 
17 *63:93 *63:105 89.375 
18 *63:105 *345:start 15.0625 
19 *63:105 *63:117 89.375 
20 *63:117 *344:start 14.8929 
21 *63:117 *63:130 89.375 
22 *63:130 *343:start 14.8929 
23 *63:130 *63:143 177.411 
24 *63:143 *337:start 16.2143 
25 *63:19 *342:start 0.830357 
*END

*D_NET *64 0.10901
*CONN
*P io_in[6] I
*I *335:select[0] I *D mux16x1_project
*I *334:select[0] I *D mux16x1_project
*I *333:select[0] I *D mux16x1_project
*I *332:select[0] I *D mux16x1_project
*I *336:select[0] I *D mux16x1_project
*CAP
1 io_in[6] 0.000768925
2 *335:select[0] 8.34412e-05
3 *334:select[0] 8.34412e-05
4 *333:select[0] 8.34412e-05
5 *332:select[0] 0.000123633
6 *336:select[0] 0.00046995
7 *64:59 0.00413749
8 *64:57 0.00406017
9 *64:55 0.00475615
10 *64:53 0.00641156
11 *64:51 0.00381703
12 *64:45 0.00720217
13 *64:43 0.0064068
14 *64:41 0.00352467
15 *64:35 0.0074931
16 *64:33 0.00644879
17 *64:29 0.00740922
18 *64:27 0.00726995
19 *64:15 0.00140767
20 *64:13 0.0141836
21 *64:11 0.0141836
22 *64:9 0.0039583
23 *64:7 0.00472723
24 *64:13 *336:select[2] 0
25 *64:13 *65:73 0
*RES
1 io_in[6] *64:7 5.99187 
2 *64:7 *64:9 80.875 
3 *64:9 *64:11 3.41 
4 *64:11 *64:13 46.6021 
5 *64:13 *64:15 3.41 
6 *64:15 *336:select[0] 9.72321 
7 *64:15 *64:27 19.3036 
8 *64:27 *64:29 129.5 
9 *64:29 *64:33 22.25 
10 *64:33 *64:35 108.321 
11 *64:35 *64:41 45.1429 
12 *64:41 *64:43 27.3036 
13 *64:43 *64:45 102.321 
14 *64:45 *64:51 45.1429 
15 *64:51 *64:53 33.3036 
16 *64:53 *64:55 96.3214 
17 *64:55 *64:57 0.946429 
18 *64:57 *64:59 82.4286 
19 *64:59 *332:select[0] 2.52679 
20 *64:53 *333:select[0] 1.70536 
21 *64:43 *334:select[0] 1.70536 
22 *64:33 *335:select[0] 1.70536 
*END

*D_NET *65 0.104147
*CONN
*P io_in[7] I
*I *336:select[1] I *D mux16x1_project
*I *335:select[1] I *D mux16x1_project
*I *332:select[1] I *D mux16x1_project
*I *333:select[1] I *D mux16x1_project
*I *334:select[1] I *D mux16x1_project
*CAP
1 io_in[7] 0.00157006
2 *336:select[1] 0.000602039
3 *335:select[1] 9.70869e-05
4 *332:select[1] 0.00851256
5 *333:select[1] 0.000466213
6 *334:select[1] 6.45578e-05
7 *65:73 0.00924652
8 *65:32 0.0185908
9 *65:21 0.0185768
10 *65:15 0.00917669
11 *65:13 0.0222487
12 *65:11 0.0149949
13 *65:13 *335:select[2] 0
14 *64:13 *65:73 0
*RES
1 io_in[7] *65:11 25.3846 
2 *65:11 *65:13 43.8275 
3 *65:13 *65:15 0.515433 
4 *65:15 *65:21 34.1872 
5 *65:21 *334:select[1] 6.9751 
6 *65:21 *65:32 33.2854 
7 *65:32 *333:select[1] 14.9305 
8 *65:32 *332:select[1] 36.4253 
9 *65:15 *335:select[1] 5.29393 
10 *65:13 *65:73 40.3022 
11 *65:73 *336:select[1] 12.2054 
*END

*D_NET *66 0.102326
*CONN
*P io_in[8] I
*I *332:select[2] I *D mux16x1_project
*I *333:select[2] I *D mux16x1_project
*I *334:select[2] I *D mux16x1_project
*I *335:select[2] I *D mux16x1_project
*I *336:select[2] I *D mux16x1_project
*CAP
1 io_in[8] 0.0134666
2 *332:select[2] 0.00851259
3 *333:select[2] 0.000466216
4 *334:select[2] 6.45813e-05
5 *335:select[2] 0.000469017
6 *336:select[2] 0.00969689
7 *66:60 0.0164933
8 *66:15 0.0186099
9 *66:13 0.0110372
10 *66:7 0.0235098
11 *64:13 *336:select[2] 0
12 *65:13 *335:select[2] 0
*RES
1 io_in[8] *66:7 47.6824 
2 *66:7 *66:13 9.02713 
3 *66:13 *66:15 29.5567 
4 *66:15 *336:select[2] 49.8025 
5 *66:15 *335:select[2] 14.9305 
6 *66:13 *334:select[2] 6.9751 
7 *66:7 *66:60 25.7403 
8 *66:60 *333:select[2] 14.9305 
9 *66:60 *332:select[2] 36.4253 
*END

*D_NET *67 0.0972995
*CONN
*P io_in[9] I
*I *332:select[3] I *D mux16x1_project
*I *336:select[3] I *D mux16x1_project
*I *335:select[3] I *D mux16x1_project
*I *334:select[3] I *D mux16x1_project
*I *333:select[3] I *D mux16x1_project
*CAP
1 io_in[9] 0.0129221
2 *332:select[3] 0.000143729
3 *336:select[3] 0.00142121
4 *335:select[3] 8.34412e-05
5 *334:select[3] 0.000103537
6 *333:select[3] 0.000103537
7 *67:65 0.00373202
8 *67:53 0.00886812
9 *67:51 0.00751332
10 *67:43 0.00120292
11 *67:39 0.00738325
12 *67:37 0.00769745
13 *67:27 0.00230145
14 *67:23 0.00716533
15 *67:21 0.00799591
16 *67:11 0.00181106
17 *67:9 0.00519355
18 *67:7 0.0216576
*RES
1 io_in[9] *67:7 45.9168 
2 *67:7 *67:9 105.161 
3 *67:9 *67:11 0.946429 
4 *67:11 *333:select[3] 2.11607 
5 *67:11 *67:21 34.25 
6 *67:21 *67:23 129.5 
7 *67:23 *67:27 17.0179 
8 *67:27 *334:select[3] 2.11607 
9 *67:27 *67:37 28.25 
10 *67:37 *67:39 129.5 
11 *67:39 *67:43 21.6071 
12 *67:43 *335:select[3] 1.70536 
13 *67:43 *67:51 1.35714 
14 *67:51 *67:53 152.5 
15 *67:53 *336:select[3] 29.3125 
16 *67:7 *67:65 73.5893 
17 *67:65 *332:select[3] 2.9375 
*END

*D_NET *106 0.204516
*CONN
*P io_out[0] O
*I *332:y O *D mux16x1_project
*I *333:y O *D mux16x1_project
*I *334:y O *D mux16x1_project
*I *335:y O *D mux16x1_project
*I *336:y O *D mux16x1_project
*CAP
1 io_out[0] 0.0123142
2 *332:y 0.00939763
3 *333:y 0.000410157
4 *334:y 0.000410157
5 *335:y 0.000410157
6 *336:y 0.000410157
7 *106:43 0.0187423
8 *106:33 0.0183431
9 *106:23 0.018407
10 *106:13 0.0636123
11 *106:11 0.0519743
12 *106:7 0.0100848
*RES
1 *336:y *106:7 4.7307 
2 *106:7 *106:11 2.40953 
3 *106:11 *106:13 179.126 
4 *106:13 io_out[0] 43.935 
5 *106:7 *106:23 31.3678 
6 *106:23 *335:y 4.7307 
7 *106:23 *106:33 31.3678 
8 *106:33 *334:y 4.7307 
9 *106:33 *106:43 31.3678 
10 *106:43 *333:y 4.7307 
11 *106:43 *332:y 36.0985 
*END

*D_NET *252 0.14634
*CONN
*I *332:data_in[0] I *D mux16x1_project
*I *337:X1_Y1 O *D sky130_osu_ring_oscillator_mpr2aa_8_b0r1
*CAP
1 *332:data_in[0] 0.00257985
2 *337:X1_Y1 0.000888882
3 *252:18 0.0537923
4 *252:16 0.0512124
5 *252:14 0.0126018
6 *252:12 0.0134906
7 *252:14 *260:20 0.0101338
8 *252:14 *261:9 0.00164055
9 *337:s2 *252:14 0
10 *41:171 *252:14 0
*RES
1 *337:X1_Y1 *252:12 25.4891 
2 *252:12 *252:14 51.8222 
3 *252:14 *252:16 3.41 
4 *252:16 *252:18 166.665 
5 *252:18 *332:data_in[0] 8.6809 
*END

*D_NET *253 0.167963
*CONN
*I *332:data_in[10] I *D mux16x1_project
*I *338:X1_Y1 O *D sky130_osu_ring_oscillator_mpr2ca_8_b0r2
*CAP
1 *332:data_in[10] 0.000673805
2 *338:X1_Y1 0.000665521
3 *253:22 0.0461967
4 *253:20 0.0455229
5 *253:18 0.0260347
6 *253:16 0.0260347
7 *253:14 0.00300299
8 *253:12 0.00366851
9 *332:data_in[10] *332:data_in[11] 0
10 *253:14 *269:16 0.000866499
11 *253:14 *285:12 0.00611884
12 *253:14 *301:12 0
13 *253:14 *301:14 0
14 *253:22 *310:14 0.00917782
*RES
1 *338:X1_Y1 *253:12 22.125 
2 *253:12 *253:14 83.2946 
3 *253:14 *253:16 4.5 
4 *253:16 *253:18 531.071 
5 *253:18 *253:20 4.5 
6 *253:20 *253:22 902.875 
7 *253:22 *332:data_in[10] 11.1028 
*END

*D_NET *254 0.172074
*CONN
*I *332:data_in[11] I *D mux16x1_project
*I *339:X1_Y1 O *D sky130_osu_ring_oscillator_mpr2ct_8_b0r2
*CAP
1 *332:data_in[11] 0.000693179
2 *339:X1_Y1 0.000605219
3 *254:18 0.0476524
4 *254:16 0.0469592
5 *254:14 0.0302788
6 *254:12 0.0302788
7 *254:10 0.00336938
8 *254:8 0.0039746
9 *332:data_in[11] *332:data_in[12] 0
10 *254:10 *270:14 0.00826228
11 *332:data_in[10] *332:data_in[11] 0
*RES
1 *339:X1_Y1 *254:8 21.2768 
2 *254:8 *254:10 92.9464 
3 *254:10 *254:12 4.5 
4 *254:12 *254:14 617.286 
5 *254:14 *254:16 4.5 
6 *254:16 *254:18 896.714 
7 *254:18 *332:data_in[11] 11.4064 
*END

*D_NET *255 0.291136
*CONN
*I *332:data_in[12] I *D mux16x1_project
*I *340:X1_Y1 O *D sky130_osu_ring_oscillator_mpr2ea_8_b0r2
*CAP
1 *332:data_in[12] 0.000434562
2 *340:X1_Y1 0.0013215
3 *255:22 0.0124138
4 *255:20 0.0119792
5 *255:18 0.0316672
6 *255:16 0.0329887
7 *332:data_in[12] *332:data_in[13] 0
8 *255:16 *271:14 2.49407e-05
9 *255:18 *271:14 0.000398034
10 *255:18 *287:10 0.00242502
11 *255:18 *317:15 0.0980912
12 *255:22 *256:14 0.0565538
13 *255:22 *269:22 0.000589639
14 *255:22 *272:14 0.0419599
15 *332:data_in[11] *332:data_in[12] 0
16 *30:43 *255:16 0.000288562
*RES
1 *340:X1_Y1 *255:16 35.0357 
2 *255:16 *255:18 977.009 
3 *255:18 *255:20 4.5 
4 *255:20 *255:22 697.884 
5 *255:22 *332:data_in[12] 4.8388 
*END

*D_NET *256 0.282055
*CONN
*I *332:data_in[13] I *D mux16x1_project
*I *341:X1_Y1 O *D sky130_osu_ring_oscillator_mpr2et_8_b0r2
*CAP
1 *332:data_in[13] 0.000466997
2 *341:X1_Y1 0.00054854
3 *256:14 0.0248344
4 *256:12 0.0243674
5 *256:10 0.0321414
6 *256:8 0.0326899
7 *332:data_in[13] *332:data_in[14] 0
8 *256:10 *272:10 0.103923
9 *256:14 *332:data_in[14] 0
10 *256:14 *333:data_in[0] 0
11 *256:14 *333:data_in[11] 0
12 *256:14 *333:data_in[12] 0
13 *256:14 *333:data_in[14] 0
14 *256:14 *333:data_in[2] 0
15 *256:14 *333:data_in[3] 0
16 *256:14 *333:data_in[4] 0
17 *256:14 *333:data_in[5] 0
18 *256:14 *333:data_in[6] 0
19 *256:14 *334:data_in[0] 0
20 *256:14 *334:data_in[10] 0
21 *256:14 *334:data_in[11] 0
22 *256:14 *334:data_in[12] 0
23 *256:14 *334:data_in[14] 0
24 *256:14 *334:data_in[2] 0