*SPEF "ieee 1481-1999"
*DESIGN "user_project_wrapper"
*DATE "11:11:11 Fri 11 11, 1111"
*VENDOR "OpenRCX"
*PROGRAM "Parallel Extraction"
*VERSION "1.0"
*DESIGN_FLOW "NAME_SCOPE LOCAL" "PIN_CAP NONE"
*DIVIDER /
*DELIMITER :
*BUS_DELIMITER []
*T_UNIT 1 NS
*C_UNIT 1 PF
*R_UNIT 1 OHM
*L_UNIT 1 HENRY

*NAME_MAP
*1 analog_io[0]
*2 analog_io[10]
*3 analog_io[11]
*4 analog_io[12]
*5 analog_io[13]
*6 analog_io[14]
*7 analog_io[15]
*8 analog_io[16]
*9 analog_io[17]
*10 analog_io[18]
*11 analog_io[19]
*12 analog_io[1]
*13 analog_io[20]
*14 analog_io[21]
*15 analog_io[22]
*16 analog_io[23]
*17 analog_io[24]
*18 analog_io[25]
*19 analog_io[26]
*20 analog_io[27]
*21 analog_io[28]
*22 analog_io[2]
*23 analog_io[3]
*24 analog_io[4]
*25 analog_io[5]
*26 analog_io[6]
*27 analog_io[7]
*28 analog_io[8]
*29 analog_io[9]
*30 io_in[0]
*31 io_in[10]
*32 io_in[11]
*33 io_in[12]
*34 io_in[13]
*35 io_in[14]
*36 io_in[15]
*37 io_in[16]
*38 io_in[17]
*39 io_in[18]
*40 io_in[19]
*41 io_in[1]
*42 io_in[20]
*43 io_in[21]
*44 io_in[22]
*45 io_in[23]
*46 io_in[24]
*47 io_in[25]
*48 io_in[26]
*49 io_in[27]
*50 io_in[28]
*51 io_in[29]
*52 io_in[2]
*53 io_in[30]
*54 io_in[31]
*55 io_in[32]
*56 io_in[33]
*57 io_in[34]
*58 io_in[35]
*59 io_in[36]
*60 io_in[37]
*61 io_in[3]
*62 io_in[4]
*63 io_in[5]
*64 io_in[6]
*65 io_in[7]
*66 io_in[8]
*67 io_in[9]
*68 io_oeb[0]
*69 io_oeb[10]
*70 io_oeb[11]
*71 io_oeb[12]
*72 io_oeb[13]
*73 io_oeb[14]
*74 io_oeb[15]
*75 io_oeb[16]
*76 io_oeb[17]
*77 io_oeb[18]
*78 io_oeb[19]
*79 io_oeb[1]
*80 io_oeb[20]
*81 io_oeb[21]
*82 io_oeb[22]
*83 io_oeb[23]
*84 io_oeb[24]
*85 io_oeb[25]
*86 io_oeb[26]
*87 io_oeb[27]
*88 io_oeb[28]
*89 io_oeb[29]
*90 io_oeb[2]
*91 io_oeb[30]
*92 io_oeb[31]
*93 io_oeb[32]
*94 io_oeb[33]
*95 io_oeb[34]
*96 io_oeb[35]
*97 io_oeb[36]
*98 io_oeb[37]
*99 io_oeb[3]
*100 io_oeb[4]
*101 io_oeb[5]
*102 io_oeb[6]
*103 io_oeb[7]
*104 io_oeb[8]
*105 io_oeb[9]
*106 io_out[0]
*107 io_out[10]
*108 io_out[11]
*109 io_out[12]
*110 io_out[13]
*111 io_out[14]
*112 io_out[15]
*113 io_out[16]
*114 io_out[17]
*115 io_out[18]
*116 io_out[19]
*117 io_out[1]
*118 io_out[20]
*119 io_out[21]
*120 io_out[22]
*121 io_out[23]
*122 io_out[24]
*123 io_out[25]
*124 io_out[26]
*125 io_out[27]
*126 io_out[28]
*127 io_out[29]
*128 io_out[2]
*129 io_out[30]
*130 io_out[31]
*131 io_out[32]
*132 io_out[33]
*133 io_out[34]
*134 io_out[35]
*135 io_out[36]
*136 io_out[37]
*137 io_out[3]
*138 io_out[4]
*139 io_out[5]
*140 io_out[6]
*141 io_out[7]
*142 io_out[8]
*143 io_out[9]
*146 wb_clk_i
*147 wb_rst_i
*148 wbs_ack_o
*149 wbs_adr_i[0]
*150 wbs_adr_i[10]
*151 wbs_adr_i[11]
*152 wbs_adr_i[12]
*153 wbs_adr_i[13]
*154 wbs_adr_i[14]
*155 wbs_adr_i[15]
*156 wbs_adr_i[16]
*157 wbs_adr_i[17]
*158 wbs_adr_i[18]
*159 wbs_adr_i[19]
*160 wbs_adr_i[1]
*161 wbs_adr_i[20]
*162 wbs_adr_i[21]
*163 wbs_adr_i[22]
*164 wbs_adr_i[23]
*165 wbs_adr_i[24]
*166 wbs_adr_i[25]
*167 wbs_adr_i[26]
*168 wbs_adr_i[27]
*169 wbs_adr_i[28]
*170 wbs_adr_i[29]
*171 wbs_adr_i[2]
*172 wbs_adr_i[30]
*173 wbs_adr_i[31]
*174 wbs_adr_i[3]
*175 wbs_adr_i[4]
*176 wbs_adr_i[5]
*177 wbs_adr_i[6]
*178 wbs_adr_i[7]
*179 wbs_adr_i[8]
*180 wbs_adr_i[9]
*181 wbs_cyc_i
*182 wbs_dat_i[0]
*183 wbs_dat_i[10]
*184 wbs_dat_i[11]
*185 wbs_dat_i[12]
*186 wbs_dat_i[13]
*187 wbs_dat_i[14]
*188 wbs_dat_i[15]
*189 wbs_dat_i[16]
*190 wbs_dat_i[17]
*191 wbs_dat_i[18]
*192 wbs_dat_i[19]
*193 wbs_dat_i[1]
*194 wbs_dat_i[20]
*195 wbs_dat_i[21]
*196 wbs_dat_i[22]
*197 wbs_dat_i[23]
*198 wbs_dat_i[24]
*199 wbs_dat_i[25]
*200 wbs_dat_i[26]
*201 wbs_dat_i[27]
*202 wbs_dat_i[28]
*203 wbs_dat_i[29]
*204 wbs_dat_i[2]
*205 wbs_dat_i[30]
*206 wbs_dat_i[31]
*207 wbs_dat_i[3]
*208 wbs_dat_i[4]
*209 wbs_dat_i[5]
*210 wbs_dat_i[6]
*211 wbs_dat_i[7]
*212 wbs_dat_i[8]
*213 wbs_dat_i[9]
*214 wbs_dat_o[0]
*215 wbs_dat_o[10]
*216 wbs_dat_o[11]
*217 wbs_dat_o[12]
*218 wbs_dat_o[13]
*219 wbs_dat_o[14]
*220 wbs_dat_o[15]
*221 wbs_dat_o[16]
*222 wbs_dat_o[17]
*223 wbs_dat_o[18]
*224 wbs_dat_o[19]
*225 wbs_dat_o[1]
*226 wbs_dat_o[20]
*227 wbs_dat_o[21]
*228 wbs_dat_o[22]
*229 wbs_dat_o[23]
*230 wbs_dat_o[24]
*231 wbs_dat_o[25]
*232 wbs_dat_o[26]
*233 wbs_dat_o[27]
*234 wbs_dat_o[28]
*235 wbs_dat_o[29]
*236 wbs_dat_o[2]
*237 wbs_dat_o[30]
*238 wbs_dat_o[31]
*239 wbs_dat_o[3]
*240 wbs_dat_o[4]
*241 wbs_dat_o[5]
*242 wbs_dat_o[6]
*243 wbs_dat_o[7]
*244 wbs_dat_o[8]
*245 wbs_dat_o[9]
*246 wbs_sel_i[0]
*247 wbs_sel_i[1]
*248 wbs_sel_i[2]
*249 wbs_sel_i[3]
*250 wbs_stb_i
*251 wbs_we_i
*252 x1\[0\]
*253 x1\[10\]
*254 x1\[11\]
*255 x1\[12\]
*256 x1\[13\]
*257 x1\[14\]
*258 x1\[15\]
*259 x1\[1\]
*260 x1\[2\]
*261 x1\[3\]
*262 x1\[4\]
*263 x1\[5\]
*264 x1\[6\]
*265 x1\[7\]
*266 x1\[8\]
*267 x1\[9\]
*268 x2\[0\]
*269 x2\[10\]
*270 x2\[11\]
*271 x2\[12\]
*272 x2\[13\]
*273 x2\[14\]
*274 x2\[15\]
*275 x2\[1\]
*276 x2\[2\]
*277 x2\[3\]
*278 x2\[4\]
*279 x2\[5\]
*280 x2\[6\]
*281 x2\[7\]
*282 x2\[8\]
*283 x2\[9\]
*284 x3\[0\]
*285 x3\[10\]
*286 x3\[11\]
*287 x3\[12\]
*288 x3\[13\]
*289 x3\[14\]
*290 x3\[15\]
*291 x3\[1\]
*292 x3\[2\]
*293 x3\[3\]
*294 x3\[4\]
*295 x3\[5\]
*296 x3\[6\]
*297 x3\[7\]
*298 x3\[8\]
*299 x3\[9\]
*300 x4\[0\]
*301 x4\[10\]
*302 x4\[11\]
*303 x4\[12\]
*304 x4\[13\]
*305 x4\[14\]
*306 x4\[15\]
*307 x4\[1\]
*308 x4\[2\]
*309 x4\[3\]
*310 x4\[4\]
*311 x4\[5\]
*312 x4\[6\]
*313 x4\[7\]
*314 x4\[8\]
*315 x4\[9\]
*316 x5\[0\]
*317 x5\[10\]
*318 x5\[11\]
*319 x5\[12\]
*320 x5\[13\]
*321 x5\[14\]
*322 x5\[15\]
*323 x5\[1\]
*324 x5\[2\]
*325 x5\[3\]
*326 x5\[4\]
*327 x5\[5\]
*328 x5\[6\]
*329 x5\[7\]
*330 x5\[8\]
*331 x5\[9\]
*332 mprj1
*333 mprj2
*334 mprj3
*335 mprj4
*336 mprj5
*337 ro11
*338 ro12
*339 ro13
*340 ro14
*341 ro15
*342 ro3
*343 ro4
*344 ro5
*345 ro6
*346 ro7

*PORTS
analog_io[0] I
analog_io[10] I
analog_io[11] I
analog_io[12] I
analog_io[13] I
analog_io[14] I
analog_io[15] I
analog_io[16] I
analog_io[17] I
analog_io[18] I
analog_io[19] I
analog_io[1] I
analog_io[20] I
analog_io[21] I
analog_io[22] I
analog_io[23] I
analog_io[24] I
analog_io[25] I
analog_io[26] I
analog_io[27] I
analog_io[28] I
analog_io[2] I
analog_io[3] I
analog_io[4] I
analog_io[5] I
analog_io[6] I
analog_io[7] I
analog_io[8] I
analog_io[9] I
io_in[0] I
io_in[10] I
io_in[11] I
io_in[12] I
io_in[13] I
io_in[14] I
io_in[15] I
io_in[16] I
io_in[17] I
io_in[18] I
io_in[19] I
io_in[1] I
io_in[20] I
io_in[21] I
io_in[22] I
io_in[23] I
io_in[24] I
io_in[25] I
io_in[26] I
io_in[27] I
io_in[28] I
io_in[29] I
io_in[2] I
io_in[30] I
io_in[31] I
io_in[32] I
io_in[33] I
io_in[34] I
io_in[35] I
io_in[36] I
io_in[37] I
io_in[3] I
io_in[4] I
io_in[5] I
io_in[6] I
io_in[7] I
io_in[8] I
io_in[9] I
io_oeb[0] O
io_oeb[10] O
io_oeb[11] O
io_oeb[12] O
io_oeb[13] O
io_oeb[14] O
io_oeb[15] O
io_oeb[16] O
io_oeb[17] O
io_oeb[18] O
io_oeb[19] O
io_oeb[1] O
io_oeb[20] O
io_oeb[21] O
io_oeb[22] O
io_oeb[23] O
io_oeb[24] O
io_oeb[25] O
io_oeb[26] O
io_oeb[27] O
io_oeb[28] O
io_oeb[29] O
io_oeb[2] O
io_oeb[30] O
io_oeb[31] O
io_oeb[32] O
io_oeb[33] O
io_oeb[34] O
io_oeb[35] O
io_oeb[36] O
io_oeb[37] O
io_oeb[3] O
io_oeb[4] O
io_oeb[5] O
io_oeb[6] O
io_oeb[7] O
io_oeb[8] O
io_oeb[9] O
io_out[0] O
io_out[10] O
io_out[11] O
io_out[12] O
io_out[13] O
io_out[14] O
io_out[15] O
io_out[16] O
io_out[17] O
io_out[18] O
io_out[19] O
io_out[1] O
io_out[20] O
io_out[21] O
io_out[22] O
io_out[23] O
io_out[24] O
io_out[25] O
io_out[26] O
io_out[27] O
io_out[28] O
io_out[29] O
io_out[2] O
io_out[30] O
io_out[31] O
io_out[32] O
io_out[33] O
io_out[34] O
io_out[35] O
io_out[36] O
io_out[37] O
io_out[3] O
io_out[4] O
io_out[5] O
io_out[6] O
io_out[7] O
io_out[8] O
io_out[9] O
wb_clk_i I
wb_rst_i I
wbs_ack_o O
wbs_adr_i[0] I
wbs_adr_i[10] I
wbs_adr_i[11] I
wbs_adr_i[12] I
wbs_adr_i[13] I
wbs_adr_i[14] I
wbs_adr_i[15] I
wbs_adr_i[16] I
wbs_adr_i[17] I
wbs_adr_i[18] I
wbs_adr_i[19] I
wbs_adr_i[1] I
wbs_adr_i[20] I
wbs_adr_i[21] I
wbs_adr_i[22] I
wbs_adr_i[23] I
wbs_adr_i[24] I
wbs_adr_i[25] I
wbs_adr_i[26] I
wbs_adr_i[27] I
wbs_adr_i[28] I
wbs_adr_i[29] I
wbs_adr_i[2] I
wbs_adr_i[30] I
wbs_adr_i[31] I
wbs_adr_i[3] I
wbs_adr_i[4] I
wbs_adr_i[5] I
wbs_adr_i[6] I
wbs_adr_i[7] I
wbs_adr_i[8] I
wbs_adr_i[9] I
wbs_cyc_i I
wbs_dat_i[0] I
wbs_dat_i[10] I
wbs_dat_i[11] I
wbs_dat_i[12] I
wbs_dat_i[13] I
wbs_dat_i[14] I
wbs_dat_i[15] I
wbs_dat_i[16] I
wbs_dat_i[17] I
wbs_dat_i[18] I
wbs_dat_i[19] I
wbs_dat_i[1] I
wbs_dat_i[20] I
wbs_dat_i[21] I
wbs_dat_i[22] I
wbs_dat_i[23] I
wbs_dat_i[24] I
wbs_dat_i[25] I
wbs_dat_i[26] I
wbs_dat_i[27] I
wbs_dat_i[28] I
wbs_dat_i[29] I
wbs_dat_i[2] I
wbs_dat_i[30] I
wbs_dat_i[31] I
wbs_dat_i[3] I
wbs_dat_i[4] I
wbs_dat_i[5] I
wbs_dat_i[6] I
wbs_dat_i[7] I
wbs_dat_i[8] I
wbs_dat_i[9] I
wbs_dat_o[0] O
wbs_dat_o[10] O
wbs_dat_o[11] O
wbs_dat_o[12] O
wbs_dat_o[13] O
wbs_dat_o[14] O
wbs_dat_o[15] O
wbs_dat_o[16] O
wbs_dat_o[17] O
wbs_dat_o[18] O
wbs_dat_o[19] O
wbs_dat_o[1] O
wbs_dat_o[20] O
wbs_dat_o[21] O
wbs_dat_o[22] O
wbs_dat_o[23] O
wbs_dat_o[24] O
wbs_dat_o[25] O
wbs_dat_o[26] O
wbs_dat_o[27] O
wbs_dat_o[28] O
wbs_dat_o[29] O
wbs_dat_o[2] O
wbs_dat_o[30] O
wbs_dat_o[31] O
wbs_dat_o[3] O
wbs_dat_o[4] O
wbs_dat_o[5] O
wbs_dat_o[6] O
wbs_dat_o[7] O
wbs_dat_o[8] O
wbs_dat_o[9] O
wbs_sel_i[0] I
wbs_sel_i[1] I
wbs_sel_i[2] I
wbs_sel_i[3] I
wbs_stb_i I
wbs_we_i I

*D_NET *30 0.384209
*CONN
*P io_in[0] I
*I *339:s1 I *D sky130_osu_ring_oscillator_mpr2ea_8_b0r2
*I *338:s1 I *D sky130_osu_ring_oscillator_mpr2ct_8_b0r2
*I *345:s1 I *D sky130_osu_ring_oscillator_mpr2et_8_b0r1
*I *342:s1 I *D sky130_osu_ring_oscillator_mpr2ca_8_b0r1
*I *343:s1 I *D sky130_osu_ring_oscillator_mpr2ct_8_b0r1
*I *344:s1 I *D sky130_osu_ring_oscillator_mpr2ea_8_b0r1
*I *346:s1 I *D sky130_osu_ring_oscillator_mpr2xa_8_b0r1
*I *337:s1 I *D sky130_osu_ring_oscillator_mpr2ca_8_b0r2
*I *340:s1 I *D sky130_osu_ring_oscillator_mpr2et_8_b0r2
*I *341:s1 I *D sky130_osu_ring_oscillator_mpr2xa_8_b0r2
*CAP
1 io_in[0] 0.0748016
2 *339:s1 0.00047502
3 *338:s1 6.88629e-05
4 *345:s1 0.000532172
5 *342:s1 0.00012398
6 *343:s1 9.15124e-06
7 *344:s1 0.000327457
8 *346:s1 0.00181112
9 *337:s1 0.000213066
10 *340:s1 0
11 *341:s1 0.000456844
12 *30:224 0.00435008
13 *30:222 0.00521859
14 *30:201 0.00226997
15 *30:191 0.00506501
16 *30:170 0.00480213
17 *30:164 0.00524604
18 *30:162 0.00488883
19 *30:154 0.000852952
20 *30:152 0.00441786
21 *30:150 0.00560158
22 *30:118 0.0186983
23 *30:116 0.0189815
24 *30:92 0.00461907
25 *30:90 0.00364976
26 *30:82 0.000879727
27 *30:72 0.00496993
28 *30:70 0.00431338
29 *30:68 0.0010193
30 *30:64 0.00387859
31 *30:57 0.000566854
32 *30:49 0.0041104
33 *30:45 0.00428086
34 *30:43 0.00493229
35 *30:19 0.00383888
36 *30:9 0.0458575
37 *30:7 0.0433361
38 *30:5 0.0748016
39 *337:s1 *337:start 6.07822e-05
40 *337:s1 *41:125 0.000101932
41 *338:s1 *338:s2 5.32068e-05
42 *345:s1 *345:start 8.80481e-05
43 *346:s1 *264:10 0
44 *30:19 *41:25 0.00169921
45 *30:19 *61:21 0.00239034
46 *30:19 *62:21 0.000828505
47 *30:57 *340:start 0.000100486
48 *30:64 *41:79 0.00701898
49 *30:64 *41:99 0.000367405
50 *30:82 *41:99 0
51 *30:90 *338:s2 0.000256472
52 *30:90 *338:start 7.42492e-06
53 *30:92 *41:113 0.00640487
54 *30:92 *41:119 0
55 *30:118 *264:10 0
56 *30:152 *41:165 0
57 *30:152 *41:173 0
58 *30:162 *345:start 0.000323904
59 *30:162 *41:173 0.000230362
60 *30:164 *41:173 1.05441e-05
61 *30:164 *41:179 0
62 *30:201 *41:224 0
*RES
1 io_in[0] *30:5 256.812 
2 *30:5 *30:7 8 
3 *30:7 *30:9 1003.05 
4 *30:9 *30:19 29.3467 
5 *30:19 *341:s1 40.2173 
6 *30:19 *30:43 23.4494 
7 *30:43 *30:45 93.7321 
8 *30:45 *30:49 4.19464 
9 *30:49 *30:57 28.3607 
10 *30:57 *340:s1 23 
11 *30:49 *30:64 111.598 
12 *30:64 *30:68 10.0309 
13 *30:68 *30:70 8 
14 *30:70 *30:72 99.4493 
15 *30:72 *30:82 37.6809 
16 *30:82 *30:90 19.1221 
17 *30:90 *30:92 110.014 
18 *30:92 *337:s1 20.9761 
19 *30:92 *30:116 22.1137 
20 *30:116 *30:118 418.719 
21 *30:118 *346:s1 14.5518 
22 *346:s1 *30:150 43.8648 
23 *30:150 *30:152 101.386 
24 *30:152 *30:154 15 
25 *30:154 *30:162 25.0568 
26 *30:162 *30:164 105.26 
27 *30:164 *30:170 44.9143 
28 *30:170 *344:s1 33.8386 
29 *30:170 *30:191 87.4764 
30 *30:191 *30:201 37.4606 
31 *30:201 *343:s1 15.2589 
32 *30:201 *30:222 27.9059 
33 *30:222 *30:224 97.6679 
34 *30:224 *342:s1 2.22679 
35 *30:154 *345:s1 35.3457 
36 *30:82 *338:s1 1.85393 
37 *30:68 *339:s1 13.4244 
*END

*D_NET *41 0.398207
*CONN
*P io_in[1] I
*I *337:s2 I *D sky130_osu_ring_oscillator_mpr2ca_8_b0r2
*I *346:s2 I *D sky130_osu_ring_oscillator_mpr2xa_8_b0r1
*I *345:s2 I *D sky130_osu_ring_oscillator_mpr2et_8_b0r1
*I *343:s2 I *D sky130_osu_ring_oscillator_mpr2ct_8_b0r1
*I *342:s2 I *D sky130_osu_ring_oscillator_mpr2ca_8_b0r1
*I *344:s2 I *D sky130_osu_ring_oscillator_mpr2ea_8_b0r1
*I *338:s2 I *D sky130_osu_ring_oscillator_mpr2ct_8_b0r2
*I *339:s2 I *D sky130_osu_ring_oscillator_mpr2ea_8_b0r2
*I *340:s2 I *D sky130_osu_ring_oscillator_mpr2et_8_b0r2
*I *341:s2 I *D sky130_osu_ring_oscillator_mpr2xa_8_b0r2
*CAP
1 io_in[1] 0.000910578
2 *337:s2 2.32948e-06
3 *346:s2 8.96176e-05
4 *345:s2 0.00230503
5 *343:s2 0.00038005
6 *342:s2 0.000988855
7 *344:s2 3.77271e-05
8 *338:s2 0.000982149
9 *339:s2 0.00120802
10 *340:s2 0.000716612
11 *341:s2 0.000169189
12 *41:226 0.0051901
13 *41:224 0.00646933
14 *41:216 0.00315361
15 *41:212 0.00464212
16 *41:210 0.0046659
17 *41:185 0.00162919
18 *41:181 0.00450268
19 *41:179 0.00452344
20 *41:173 0.0048816
21 *41:165 0.00556031
22 *41:163 0.00581945
23 *41:151 0.00195394
24 *41:145 0.0184911
25 *41:143 0.0190291
26 *41:125 0.00163023
27 *41:119 0.00225096
28 *41:113 0.00356393
29 *41:99 0.00795879
30 *41:79 0.00831672
31 *41:77 0.00463761
32 *41:66 6.21287e-06
33 *41:49 0.0058226
34 *41:43 0.00427794
35 *41:25 0.00226222
36 *41:17 0.00376385
37 *41:13 0.0715548
38 *41:11 0.0712639
39 *41:9 0.0342312
40 *41:7 0.0351418
41 *339:s2 *339:start 4.49581e-06
42 *342:s2 *342:start 2.57464e-05
43 *343:s2 *261:11 0.000409616
44 *346:s2 *280:8 0
45 *41:13 *52:13 0
46 *41:17 *273:18 0
47 *41:25 *52:27 0.00265685
48 *41:25 *61:21 0.00338381
49 *41:25 *61:39 0.000757836
50 *41:43 *52:43 0.00881365
51 *41:43 *61:41 0.00886487
52 *41:43 *273:18 0
53 *41:49 *340:s3 0.000668826
54 *41:49 *340:s4 0.000779958
55 *41:49 *52:47 1.36509e-05
56 *41:49 *61:45 0.000699796
57 *41:145 *280:8 0
58 *41:151 *280:8 0
59 *337:s1 *41:125 0.000101932
60 *338:s1 *338:s2 5.32068e-05
61 *30:19 *41:25 0.00169921
62 *30:64 *41:79 0.00701898
63 *30:64 *41:99 0.000367405
64 *30:82 *41:99 0
65 *30:90 *338:s2 0.000256472
66 *30:92 *41:113 0.00640487
67 *30:92 *41:119 0
68 *30:152 *41:165 0
69 *30:152 *41:173 0
70 *30:162 *41:173 0.000230362
71 *30:164 *41:173 1.05441e-05
72 *30:164 *41:179 0
73 *30:201 *41:224 0
*RES
1 io_in[1] *41:7 11.0763 
2 *41:7 *41:9 792.466 
3 *41:9 *41:11 8 
4 *41:11 *41:13 250.443 
5 *41:13 *41:17 14.4836 
6 *41:17 *41:25 35.3207 
7 *41:25 *341:s2 33.9409 
8 *41:17 *41:43 113.535 
9 *41:43 *41:49 28.0773 
10 *41:49 *340:s2 29.4749 
11 *340:s2 *41:66 0.150179 
12 *41:49 *41:77 28.5329 
13 *41:77 *41:79 89.0611 
14 *41:79 *339:s2 42.3429 
15 *41:79 *41:99 108.605 
16 *41:99 *338:s2 38.1896 
17 *41:99 *41:113 81.7075 
18 *41:113 *41:119 43.9689 
19 *41:119 *41:125 23.055 
20 *41:125 *41:143 41.6768 
21 *41:143 *41:145 425.534 
22 *41:145 *41:151 3.045 
23 *41:151 *41:163 23.3266 
24 *41:163 *41:165 94.0843 
25 *41:165 *41:173 38.2875 
26 *41:173 *41:179 32.5671 
27 *41:179 *41:181 79.6154 
28 *41:181 *41:185 38.49 
29 *41:185 *344:s2 30.9736 
30 *41:185 *41:210 38.5078 
31 *41:210 *41:212 95.2236 
32 *41:212 *41:216 9.42987 
33 *41:216 *41:224 34.7889 
34 *41:224 *41:226 97.1396 
35 *41:226 *342:s2 37.0296 
36 *41:216 *343:s2 18.7093 
37 *41:173 *345:s2 36.9414 
38 *41:151 *346:s2 2.18536 
39 *41:125 *337:s2 0.403929 
*END

*D_NET *52 0.428106
*CONN
*P io_in[2] I
*I *346:s3 I *D sky130_osu_ring_oscillator_mpr2xa_8_b0r1
*I *342:s3 I *D sky130_osu_ring_oscillator_mpr2ca_8_b0r1
*I *343:s3 I *D sky130_osu_ring_oscillator_mpr2ct_8_b0r1
*I *344:s3 I *D sky130_osu_ring_oscillator_mpr2ea_8_b0r1
*I *345:s3 I *D sky130_osu_ring_oscillator_mpr2et_8_b0r1
*I *337:s3 I *D sky130_osu_ring_oscillator_mpr2ca_8_b0r2
*I *338:s3 I *D sky130_osu_ring_oscillator_mpr2ct_8_b0r2
*I *339:s3 I *D sky130_osu_ring_oscillator_mpr2ea_8_b0r2
*I *340:s3 I *D sky130_osu_ring_oscillator_mpr2et_8_b0r2
*I *341:s3 I *D sky130_osu_ring_oscillator_mpr2xa_8_b0r2
*CAP
1 io_in[2] 0.00998074
2 *346:s3 0.000311383
3 *342:s3 0.00224697
4 *343:s3 0.00294511
5 *344:s3 0.000105363
6 *345:s3 0.0022122
7 *337:s3 9.48683e-05
8 *338:s3 0.00219859
9 *339:s3 0.0022856
10 *340:s3 0.00194341
11 *341:s3 0.000112879
12 *52:280 0.0041749
13 *52:278 0.00203877
14 *52:276 0.00230319
15 *52:251 0.00913443
16 *52:249 0.00437175
17 *52:235 0.00287175
18 *52:217 0.00635058
19 *52:215 0.0032094
20 *52:187 0.00282428
21 *52:183 0.00222248
22 *52:181 0.00230876
23 *52:175 0.0034353
24 *52:167 0.0033821
25 *52:163 0.0184223
26 *52:161 0.01815
27 *52:146 0.00250656
28 *52:130 0.00351241
29 *52:128 0.0011622
30 *52:107 0.00240488
31 *52:103 0.00292805
32 *52:101 0.00293735
33 *52:75 0.00250119
34 *52:73 0.00298329
35 *52:71 0.00298329
36 *52:47 0.00253416
37 *52:43 0.00379298
38 *52:41 0.00320224
39 *52:27 0.00273204
40 *52:17 0.00366843
41 *52:13 0.0629464
42 *52:11 0.0618971
43 *52:9 0.0256273
44 *52:7 0.0356081
45 *338:s3 *338:s4 0.001676
46 *339:s3 *339:s4 0.00224093
47 *340:s3 *340:s4 0.00139623
48 *340:s3 *62:60 0.000120034
49 *342:s3 *342:s4 0.00224056
50 *343:s3 *61:254 0.000241974
51 *345:s3 *62:194 0.000121504
52 *345:s3 *310:22 0.000597438
53 *346:s3 *296:11 0
54 *52:27 *61:39 0.000757836
55 *52:27 *62:39 0.000104365
56 *52:43 *61:41 5.26984e-05
57 *52:43 *256:14 0
58 *52:43 *273:18 0
59 *52:47 *340:s4 4.28574e-05
60 *52:47 *61:45 0.00135665
61 *52:47 *62:60 0.000168748
62 *52:73 *61:73 0.00810063
63 *52:73 *62:74 0.000288335
64 *52:101 *339:s4 6.47885e-05
65 *52:101 *61:103 0.000317394
66 *52:103 *61:105 0.00836876
67 *52:103 *270:18 0.00175556
68 *52:107 *338:s4 7.08078e-05
69 *52:107 *61:109 0.000313905
70 *52:130 *61:130 0.00549427
71 *52:130 *61:138 0.000306044
72 *52:130 *62:104 0.00666604
73 *52:146 *337:s4 0.000188946
74 *52:146 *61:138 0.00325478
75 *52:146 *61:142 2.23196e-07
76 *52:146 *62:104 1.34654e-05
77 *52:146 *62:108 0.000411418
78 *52:146 *62:126 0.000465757
79 *52:163 *296:11 4.6318e-06
80 *52:163 *296:13 0
81 *52:167 *264:14 0.000283695
82 *52:167 *296:11 0
83 *52:175 *346:s4 0.000215861
84 *52:175 *61:172 0.00174517
85 *52:175 *62:140 0
86 *52:175 *270:18 0
87 *52:181 *61:172 0
88 *52:181 *295:22 0.000239278
89 *52:183 *61:174 0.0068875
90 *52:183 *61:198 0.00110368
91 *52:183 *326:11 0.00820372
92 *52:187 *61:198 0.000262217
93 *52:187 *62:194 1.83344e-06
94 *52:187 *310:22 0.0004006
95 *52:217 *61:200 0.00810648
96 *52:217 *62:208 0.00103874
97 *52:235 *61:204 0
98 *52:249 *62:208 0.000521597
99 *52:251 *61:254 0.00196922
100 *52:251 *62:208 0
101 *52:251 *62:212 0
102 *52:276 *61:256 0
103 *52:280 *61:256 0.00220467
104 *41:13 *52:13 0
105 *41:25 *52:27 0.00265685
106 *41:43 *52:43 0.00881365
107 *41:49 *340:s3 0.000668826
108 *41:49 *52:47 1.36509e-05
*RES
1 io_in[2] *52:7 43.2763 
2 *52:7 *52:9 593.154 
3 *52:9 *52:11 8 
4 *52:11 *52:13 214.508 
5 *52:13 *52:17 3.88827 
6 *52:17 *52:27 42.183 
7 *52:27 *341:s3 17.6566 
8 *52:17 *52:41 8 
9 *52:41 *52:43 114.239 
10 *52:43 *52:47 10.8037 
11 *52:47 *340:s3 44.8767 
12 *52:47 *52:71 8 
13 *52:71 *52:73 104.379 
14 *52:73 *52:75 8 
15 *52:75 *339:s3 41.7682 
16 *52:75 *52:101 8.74293 
17 *52:101 *52:103 107.196 
18 *52:103 *52:107 8.74293 
19 *52:107 *338:s3 37.1862 
20 *52:107 *52:128 8 
21 *52:128 *52:130 84.6593 
22 *52:130 *52:146 35.0615 
23 *52:146 *337:s3 8.4116 
24 *52:146 *52:161 8.28187 
25 *52:161 *52:163 418.719 
26 *52:163 *52:167 7.395 
27 *52:167 *52:175 47.2563 
28 *52:175 *52:181 17.9451 
29 *52:181 *52:183 105.788 
30 *52:183 *52:187 10.0309 
31 *52:187 *345:s3 40.2989 
32 *52:187 *52:215 8 
33 *52:215 *52:217 111.422 
34 *52:217 *52:235 49.9533 
35 *52:235 *344:s3 2.50125 
36 *52:217 *52:249 10.7714 
37 *52:249 *52:251 100.526 
38 *52:251 *343:s3 48.6914 
39 *52:251 *52:276 49.8386 
40 *52:276 *52:278 2.52714 
41 *52:278 *52:280 58.2071 
42 *52:280 *342:s3 47.0671 
43 *52:167 *346:s3 7.1775 
*END

*D_NET *61 0.413948
*CONN
*P io_in[3] I
*I *337:s4 I *D sky130_osu_ring_oscillator_mpr2ca_8_b0r2
*I *342:s4 I *D sky130_osu_ring_oscillator_mpr2ca_8_b0r1
*I *343:s4 I *D sky130_osu_ring_oscillator_mpr2ct_8_b0r1
*I *344:s4 I *D sky130_osu_ring_oscillator_mpr2ea_8_b0r1
*I *345:s4 I *D sky130_osu_ring_oscillator_mpr2et_8_b0r1
*I *346:s4 I *D sky130_osu_ring_oscillator_mpr2xa_8_b0r1
*I *338:s4 I *D sky130_osu_ring_oscillator_mpr2ct_8_b0r2
*I *339:s4 I *D sky130_osu_ring_oscillator_mpr2ea_8_b0r2
*I *340:s4 I *D sky130_osu_ring_oscillator_mpr2et_8_b0r2
*I *341:s4 I *D sky130_osu_ring_oscillator_mpr2xa_8_b0r2
*CAP
1 io_in[3] 0.074292
2 *337:s4 9.18344e-05
3 *342:s4 0.00113901
4 *343:s4 0.000463426
5 *344:s4 0.000407698
6 *345:s4 0.000176745
7 *346:s4 0.000427544
8 *338:s4 0.0011385
9 *339:s4 0.00141235
10 *340:s4 0.00103777
11 *341:s4 0.000115878
12 *61:256 0.00521831
13 *61:254 0.00618773
14 *61:230 0.00271026
15 *61:226 0.00406443
16 *61:224 0.00392603
17 *61:204 0.00151675
18 *61:200 0.00434585
19 *61:198 0.00424245
20 *61:178 0.00131903
21 *61:174 0.00339803
22 *61:172 0.00323246
23 *61:146 0.00240991
24 *61:144 0.0124464
25 *61:142 0.0124629
26 *61:138 0.00204923
27 *61:130 0.00400151
28 *61:128 0.00206061
29 *61:109 0.00134174
30 *61:105 0.00318381
31 *61:103 0.00318002
32 *61:75 0.0016118
33 *61:73 0.00319586
34 *61:71 0.00319586
35 *61:45 0.00139266
36 *61:41 0.00362961
37 *61:39 0.00352056
38 *61:28 6.21287e-06
39 *61:21 0.000968995
40 *61:9 0.0149436
41 *61:7 0.0138384
42 *61:5 0.074292
43 *343:s4 *309:8 0
44 *345:s4 *311:8 0
45 *61:9 *62:9 0.0139759
46 *61:9 *62:39 0.000117356
47 *61:21 *62:21 0.000518099
48 *61:39 *62:39 0.000105074
49 *61:41 *62:41 0
50 *61:41 *62:60 0
51 *61:105 *270:18 2.31765e-05
52 *61:130 *270:18 0
53 *61:138 *62:126 0.000240954
54 *61:138 *270:18 0
55 *61:144 *312:9 0.0291469
56 *61:172 *62:140 0
57 *61:172 *62:160 0.00111227
58 *61:174 *62:162 0.00728253
59 *61:174 *326:11 0.000155692
60 *61:178 *345:s5 0.000573619
61 *61:178 *327:9 3.92941e-05
62 *61:198 *62:194 0.000204078
63 *61:254 *62:212 0
64 *61:254 *62:238 0
65 *61:254 *62:240 0
66 *61:256 *342:s5 0
67 *61:256 *62:240 0
68 *338:s3 *338:s4 0.001676
69 *339:s3 *339:s4 0.00224093
70 *340:s3 *340:s4 0.00139623
71 *342:s3 *342:s4 0.00224056
72 *343:s3 *61:254 0.000241974
73 *30:19 *61:21 0.00239034
74 *41:25 *61:21 0.00338381
75 *41:25 *61:39 0.000757836
76 *41:43 *61:41 0.00886487
77 *41:49 *340:s4 0.000779958
78 *41:49 *61:45 0.000699796
79 *52:27 *61:39 0.000757836
80 *52:43 *61:41 5.26984e-05
81 *52:47 *340:s4 4.28574e-05
82 *52:47 *61:45 0.00135665
83 *52:73 *61:73 0.00810063
84 *52:101 *339:s4 6.47885e-05
85 *52:101 *61:103 0.000317394
86 *52:103 *61:105 0.00836876
87 *52:107 *338:s4 7.08078e-05
88 *52:107 *61:109 0.000313905
89 *52:130 *61:130 0.00549427
90 *52:130 *61:138 0.000306044
91 *52:146 *337:s4 0.000188946
92 *52:146 *61:138 0.00325478
93 *52:146 *61:142 2.23196e-07
94 *52:175 *346:s4 0.000215861
95 *52:175 *61:172 0.00174517
96 *52:181 *61:172 0
97 *52:183 *61:174 0.0068875
98 *52:183 *61:198 0.00110368
99 *52:187 *61:198 0.000262217
100 *52:217 *61:200 0.00810648
101 *52:235 *61:204 0
102 *52:251 *61:254 0.00196922
103 *52:276 *61:256 0
104 *52:280 *61:256 0.00220467
*RES
1 io_in[3] *61:5 254.923 
2 *61:5 *61:7 8 
3 *61:7 *61:9 385.389 
4 *61:9 *61:21 43.6909 
5 *61:21 *341:s4 17.4339 
6 *341:s4 *61:28 0.150179 
7 *61:9 *61:39 18.9834 
8 *61:39 *61:41 114.239 
9 *61:41 *61:45 10.5461 
10 *61:45 *340:s4 41.9971 
11 *61:45 *61:71 8 
12 *61:71 *61:73 105.788 
13 *61:73 *61:75 8 
14 *61:75 *339:s4 39.8999 
15 *61:75 *61:103 8.74293 
16 *61:103 *61:105 107.196 
17 *61:105 *61:109 8.74293 
18 *61:109 *338:s4 34.6201 
19 *61:109 *61:128 8 
20 *61:128 *61:130 70.615 
21 *61:130 *61:138 45.1148 
22 *61:138 *61:142 8.09893 
23 *61:142 *61:144 424.125 
24 *61:144 *61:146 8 
25 *61:146 *346:s4 13.3846 
26 *61:146 *61:172 46.1278 
27 *61:172 *61:174 92.9346 
28 *61:174 *61:178 40.3957 
29 *61:178 *345:s4 19.1273 
30 *61:174 *61:198 32.4377 
31 *61:198 *61:200 107.196 
32 *61:200 *61:204 12.0917 
33 *61:204 *344:s4 11.846 
34 *61:204 *61:224 8 
35 *61:224 *61:226 89.5893 
36 *61:226 *61:230 8.48533 
37 *61:230 *343:s4 33.1914 
38 *61:230 *61:254 40.588 
39 *61:254 *61:256 107.528 
40 *61:256 *342:s4 42.5178 
41 *61:138 *337:s4 8.53387 
*END

*D_NET *62 0.313907
*CONN
*P io_in[4] I
*I *342:s5 I *D sky130_osu_ring_oscillator_mpr2ca_8_b0r1
*I *343:s5 I *D sky130_osu_ring_oscillator_mpr2ct_8_b0r1
*I *344:s5 I *D sky130_osu_ring_oscillator_mpr2ea_8_b0r1
*I *345:s5 I *D sky130_osu_ring_oscillator_mpr2et_8_b0r1
*I *346:s5 I *D sky130_osu_ring_oscillator_mpr2xa_8_b0r1
*I *337:s5 I *D sky130_osu_ring_oscillator_mpr2ca_8_b0r2
*I *338:s5 I *D sky130_osu_ring_oscillator_mpr2ct_8_b0r2
*I *339:s5 I *D sky130_osu_ring_oscillator_mpr2ea_8_b0r2
*I *340:s5 I *D sky130_osu_ring_oscillator_mpr2et_8_b0r2
*I *341:s5 I *D sky130_osu_ring_oscillator_mpr2xa_8_b0r2
*CAP
1 io_in[4] 0.0743288
2 *342:s5 0.000248493
3 *343:s5 0.000164081
4 *344:s5 0.00474273
5 *345:s5 0.00148193
6 *346:s5 0.000229227
7 *337:s5 0.000239245
8 *338:s5 8.21278e-05
9 *339:s5 0.0041545
10 *340:s5 0.000252334
11 *341:s5 0.000119306
12 *62:240 0.00466353
13 *62:238 0.00506888
14 *62:212 0.00145083
15 *62:208 0.00429246
16 *62:206 0.0039334
17 *62:194 0.00537461
18 *62:162 0.00318274
19 *62:160 0.00389224
20 *62:140 0.00218039
21 *62:132 0.013635
22 *62:130 0.0129968
23 *62:128 0.00515542
24 *62:126 0.00549463
25 *62:115 3.4245e-06
26 *62:108 0.00106356
27 *62:104 0.0030863
28 *62:102 0.00345239
29 *62:74 0.00534778
30 *62:72 0.00467016
31 *62:60 0.00584116
32 *62:41 0.00635733
33 *62:39 0.00473787
34 *62:21 0.00101836
35 *62:9 0.00632958
36 *62:7 0.0048791
37 *62:5 0.0743288
38 *337:s5 *269:10 0
39 *337:s5 *317:9 5.26733e-06
40 *340:s5 *320:7 0
41 *345:s5 *327:9 2.92911e-06
42 *62:74 *270:18 0
43 *62:102 *270:18 0
44 *62:104 *270:18 0
45 *62:115 *269:10 0
46 *62:132 *264:20 7.70559e-06
47 *62:140 *264:20 0.000518245
48 *62:140 *328:8 0
49 *62:162 *326:11 1.33927e-05
50 *340:s3 *62:60 0.000120034
51 *345:s3 *62:194 0.000121504
52 *30:19 *62:21 0.000828505
53 *52:27 *62:39 0.000104365
54 *52:47 *62:60 0.000168748
55 *52:73 *62:74 0.000288335
56 *52:130 *62:104 0.00666604
57 *52:146 *62:104 1.34654e-05
58 *52:146 *62:108 0.000411418
59 *52:146 *62:126 0.000465757
60 *52:175 *62:140 0
61 *52:187 *62:194 1.83344e-06
62 *52:217 *62:208 0.00103874
63 *52:249 *62:208 0.000521597
64 *52:251 *62:208 0
65 *52:251 *62:212 0
66 *61:9 *62:9 0.0139759
67 *61:9 *62:39 0.000117356
68 *61:21 *62:21 0.000518099
69 *61:39 *62:39 0.000105074
70 *61:41 *62:41 0
71 *61:41 *62:60 0
72 *61:138 *62:126 0.000240954
73 *61:172 *62:140 0
74 *61:172 *62:160 0.00111227
75 *61:174 *62:162 0.00728253
76 *61:178 *345:s5 0.000573619
77 *61:198 *62:194 0.000204078
78 *61:254 *62:212 0
79 *61:254 *62:238 0
80 *61:254 *62:240 0
81 *61:256 *342:s5 0
82 *61:256 *62:240 0
*RES
1 io_in[4] *62:5 255.009 
2 *62:5 *62:7 8 
3 *62:7 *62:9 177.625 
4 *62:9 *62:21 39.3629 
5 *62:21 *341:s5 17.667 
6 *62:9 *62:39 23.3124 
7 *62:39 *62:41 92.5825 
8 *62:41 *340:s5 20.3857 
9 *62:41 *62:60 41.5674 
10 *62:60 *339:s5 89.7654 
11 *339:s5 *62:72 19.8368 
12 *62:72 *62:74 104.027 
13 *62:74 *338:s5 16.5639 
14 *62:74 *62:102 48.9639 
15 *62:102 *62:104 91.7021 
16 *62:104 *62:108 11.5068 
17 *62:108 *337:s5 19.9093 
18 *337:s5 *62:115 0.225556 
19 *62:108 *62:126 10.3054 
20 *62:126 *62:128 118.569 
21 *62:128 *62:130 0.621429 
22 *62:130 *62:132 300.295 
23 *62:132 *62:140 32.7004 
24 *62:140 *346:s5 5.23036 
25 *62:140 *62:160 43.1773 
26 *62:160 *62:162 93.2868 
27 *62:162 *345:s5 43.7543 
28 *345:s5 *62:194 42.0977 
29 *62:194 *344:s5 101.738 
30 *344:s5 *62:206 20.7896 
31 *62:206 *62:208 90.8218 
32 *62:208 *62:212 14.1479 
33 *62:212 *343:s5 18.3143 
34 *62:212 *62:238 25.1369 
35 *62:238 *62:240 100.858 
36 *62:240 *342:s5 20.3443 
*END

*D_NET *63 0.261763
*CONN
*P io_in[5] I
*I *342:start I *D sky130_osu_ring_oscillator_mpr2ca_8_b0r1
*I *343:start I *D sky130_osu_ring_oscillator_mpr2ct_8_b0r1
*I *344:start I *D sky130_osu_ring_oscillator_mpr2ea_8_b0r1
*I *345:start I *D sky130_osu_ring_oscillator_mpr2et_8_b0r1
*I *346:start I *D sky130_osu_ring_oscillator_mpr2xa_8_b0r1
*I *337:start I *D sky130_osu_ring_oscillator_mpr2ca_8_b0r2
*I *338:start I *D sky130_osu_ring_oscillator_mpr2ct_8_b0r2
*I *339:start I *D sky130_osu_ring_oscillator_mpr2ea_8_b0r2
*I *340:start I *D sky130_osu_ring_oscillator_mpr2et_8_b0r2
*I *341:start I *D sky130_osu_ring_oscillator_mpr2xa_8_b0r2
*CAP
1 io_in[5] 0.00107084
2 *342:start 0.00054292
3 *343:start 0.000564627
4 *344:start 0.000641671
5 *345:start 0.000570014
6 *346:start 0.000625259
7 *337:start 0.000618228
8 *338:start 0.000633823
9 *339:start 0.00063244
10 *340:start 0.000595735
11 *341:start 0.000627004
12 *63:137 0.00525371
13 *63:132 0
14 *63:125 0.0100911
15 *63:111 0.0100545
16 *63:97 0.00991294
17 *63:83 0.0242674
18 *63:65 0.0241465
19 *63:53 0.00997656
20 *63:41 0.010054
21 *63:29 0.00840709
22 *63:17 0.00223732
23 *63:15 0.00471089
24 *63:13 0.0669233
25 *63:11 0.0679941
26 *337:s1 *337:start 6.07822e-05
27 *339:s2 *339:start 4.49581e-06
28 *342:s2 *342:start 2.57464e-05
29 *345:s1 *345:start 8.80481e-05
30 *30:57 *340:start 0.000100486
31 *30:90 *338:start 7.42492e-06
32 *30:162 *345:start 0.000323904
*RES
1 io_in[5] *63:11 29.3003 
2 *63:11 *63:13 1504.23 
3 *63:13 *63:15 15 
4 *63:15 *63:17 37.12 
5 *63:17 *341:start 28.8475 
6 *63:15 *63:29 71.2779 
7 *63:29 *340:start 28.2002 
8 *63:29 *63:41 108.957 
9 *63:41 *339:start 28.2675 
10 *63:41 *63:53 108.957 
11 *63:53 *338:start 28.3296 
12 *63:53 *63:65 106.844 
13 *63:65 *337:start 29.8418 
14 *63:65 *63:83 437.154 
15 *63:83 *346:start 28.4332 
16 *63:83 *63:97 108.957 
17 *63:97 *345:start 28.4954 
18 *63:97 *63:111 106.14 
19 *63:111 *344:start 28.8061 
20 *63:111 *63:125 110.366 