*SPEF "ieee 1481-1999"
*DESIGN "user_project_wrapper"
*DATE "11:11:11 Fri 11 11, 1111"
*VENDOR "OpenRCX"
*PROGRAM "Parallel Extraction"
*VERSION "1.0"
*DESIGN_FLOW "NAME_SCOPE LOCAL" "PIN_CAP NONE"
*DIVIDER /
*DELIMITER :
*BUS_DELIMITER []
*T_UNIT 1 NS
*C_UNIT 1 PF
*R_UNIT 1 OHM
*L_UNIT 1 HENRY

*NAME_MAP
*1 analog_io[0]
*2 analog_io[10]
*3 analog_io[11]
*4 analog_io[12]
*5 analog_io[13]
*6 analog_io[14]
*7 analog_io[15]
*8 analog_io[16]
*9 analog_io[17]
*10 analog_io[18]
*11 analog_io[19]
*12 analog_io[1]
*13 analog_io[20]
*14 analog_io[21]
*15 analog_io[22]
*16 analog_io[23]
*17 analog_io[24]
*18 analog_io[25]
*19 analog_io[26]
*20 analog_io[27]
*21 analog_io[28]
*22 analog_io[2]
*23 analog_io[3]
*24 analog_io[4]
*25 analog_io[5]
*26 analog_io[6]
*27 analog_io[7]
*28 analog_io[8]
*29 analog_io[9]
*30 io_in[0]
*31 io_in[10]
*32 io_in[11]
*33 io_in[12]
*34 io_in[13]
*35 io_in[14]
*36 io_in[15]
*37 io_in[16]
*38 io_in[17]
*39 io_in[18]
*40 io_in[19]
*41 io_in[1]
*42 io_in[20]
*43 io_in[21]
*44 io_in[22]
*45 io_in[23]
*46 io_in[24]
*47 io_in[25]
*48 io_in[26]
*49 io_in[27]
*50 io_in[28]
*51 io_in[29]
*52 io_in[2]
*53 io_in[30]
*54 io_in[31]
*55 io_in[32]
*56 io_in[33]
*57 io_in[34]
*58 io_in[35]
*59 io_in[36]
*60 io_in[37]
*61 io_in[3]
*62 io_in[4]
*63 io_in[5]
*64 io_in[6]
*65 io_in[7]
*66 io_in[8]
*67 io_in[9]
*68 io_oeb[0]
*69 io_oeb[10]
*70 io_oeb[11]
*71 io_oeb[12]
*72 io_oeb[13]
*73 io_oeb[14]
*74 io_oeb[15]
*75 io_oeb[16]
*76 io_oeb[17]
*77 io_oeb[18]
*78 io_oeb[19]
*79 io_oeb[1]
*80 io_oeb[20]
*81 io_oeb[21]
*82 io_oeb[22]
*83 io_oeb[23]
*84 io_oeb[24]
*85 io_oeb[25]
*86 io_oeb[26]
*87 io_oeb[27]
*88 io_oeb[28]
*89 io_oeb[29]
*90 io_oeb[2]
*91 io_oeb[30]
*92 io_oeb[31]
*93 io_oeb[32]
*94 io_oeb[33]
*95 io_oeb[34]
*96 io_oeb[35]
*97 io_oeb[36]
*98 io_oeb[37]
*99 io_oeb[3]
*100 io_oeb[4]
*101 io_oeb[5]
*102 io_oeb[6]
*103 io_oeb[7]
*104 io_oeb[8]
*105 io_oeb[9]
*106 io_out[0]
*107 io_out[10]
*108 io_out[11]
*109 io_out[12]
*110 io_out[13]
*111 io_out[14]
*112 io_out[15]
*113 io_out[16]
*114 io_out[17]
*115 io_out[18]
*116 io_out[19]
*117 io_out[1]
*118 io_out[20]
*119 io_out[21]
*120 io_out[22]
*121 io_out[23]
*122 io_out[24]
*123 io_out[25]
*124 io_out[26]
*125 io_out[27]
*126 io_out[28]
*127 io_out[29]
*128 io_out[2]
*129 io_out[30]
*130 io_out[31]
*131 io_out[32]
*132 io_out[33]
*133 io_out[34]
*134 io_out[35]
*135 io_out[36]
*136 io_out[37]
*137 io_out[3]
*138 io_out[4]
*139 io_out[5]
*140 io_out[6]
*141 io_out[7]
*142 io_out[8]
*143 io_out[9]
*146 wb_clk_i
*147 wb_rst_i
*148 wbs_ack_o
*149 wbs_adr_i[0]
*150 wbs_adr_i[10]
*151 wbs_adr_i[11]
*152 wbs_adr_i[12]
*153 wbs_adr_i[13]
*154 wbs_adr_i[14]
*155 wbs_adr_i[15]
*156 wbs_adr_i[16]
*157 wbs_adr_i[17]
*158 wbs_adr_i[18]
*159 wbs_adr_i[19]
*160 wbs_adr_i[1]
*161 wbs_adr_i[20]
*162 wbs_adr_i[21]
*163 wbs_adr_i[22]
*164 wbs_adr_i[23]
*165 wbs_adr_i[24]
*166 wbs_adr_i[25]
*167 wbs_adr_i[26]
*168 wbs_adr_i[27]
*169 wbs_adr_i[28]
*170 wbs_adr_i[29]
*171 wbs_adr_i[2]
*172 wbs_adr_i[30]
*173 wbs_adr_i[31]
*174 wbs_adr_i[3]
*175 wbs_adr_i[4]
*176 wbs_adr_i[5]
*177 wbs_adr_i[6]
*178 wbs_adr_i[7]
*179 wbs_adr_i[8]
*180 wbs_adr_i[9]
*181 wbs_cyc_i
*182 wbs_dat_i[0]
*183 wbs_dat_i[10]
*184 wbs_dat_i[11]
*185 wbs_dat_i[12]
*186 wbs_dat_i[13]
*187 wbs_dat_i[14]
*188 wbs_dat_i[15]
*189 wbs_dat_i[16]
*190 wbs_dat_i[17]
*191 wbs_dat_i[18]
*192 wbs_dat_i[19]
*193 wbs_dat_i[1]
*194 wbs_dat_i[20]
*195 wbs_dat_i[21]
*196 wbs_dat_i[22]
*197 wbs_dat_i[23]
*198 wbs_dat_i[24]
*199 wbs_dat_i[25]
*200 wbs_dat_i[26]
*201 wbs_dat_i[27]
*202 wbs_dat_i[28]
*203 wbs_dat_i[29]
*204 wbs_dat_i[2]
*205 wbs_dat_i[30]
*206 wbs_dat_i[31]
*207 wbs_dat_i[3]
*208 wbs_dat_i[4]
*209 wbs_dat_i[5]
*210 wbs_dat_i[6]
*211 wbs_dat_i[7]
*212 wbs_dat_i[8]
*213 wbs_dat_i[9]
*214 wbs_dat_o[0]
*215 wbs_dat_o[10]
*216 wbs_dat_o[11]
*217 wbs_dat_o[12]
*218 wbs_dat_o[13]
*219 wbs_dat_o[14]
*220 wbs_dat_o[15]
*221 wbs_dat_o[16]
*222 wbs_dat_o[17]
*223 wbs_dat_o[18]
*224 wbs_dat_o[19]
*225 wbs_dat_o[1]
*226 wbs_dat_o[20]
*227 wbs_dat_o[21]
*228 wbs_dat_o[22]
*229 wbs_dat_o[23]
*230 wbs_dat_o[24]
*231 wbs_dat_o[25]
*232 wbs_dat_o[26]
*233 wbs_dat_o[27]
*234 wbs_dat_o[28]
*235 wbs_dat_o[29]
*236 wbs_dat_o[2]
*237 wbs_dat_o[30]
*238 wbs_dat_o[31]
*239 wbs_dat_o[3]
*240 wbs_dat_o[4]
*241 wbs_dat_o[5]
*242 wbs_dat_o[6]
*243 wbs_dat_o[7]
*244 wbs_dat_o[8]
*245 wbs_dat_o[9]
*246 wbs_sel_i[0]
*247 wbs_sel_i[1]
*248 wbs_sel_i[2]
*249 wbs_sel_i[3]
*250 wbs_stb_i
*251 wbs_we_i
*252 x1\[0\]
*253 x1\[10\]
*254 x1\[11\]
*255 x1\[12\]
*256 x1\[13\]
*257 x1\[14\]
*258 x1\[15\]
*259 x1\[1\]
*260 x1\[2\]
*261 x1\[3\]
*262 x1\[4\]
*263 x1\[5\]
*264 x1\[6\]
*265 x1\[7\]
*266 x1\[8\]
*267 x1\[9\]
*268 x2\[0\]
*269 x2\[10\]
*270 x2\[11\]
*271 x2\[12\]
*272 x2\[13\]
*273 x2\[14\]
*274 x2\[15\]
*275 x2\[1\]
*276 x2\[2\]
*277 x2\[3\]
*278 x2\[4\]
*279 x2\[5\]
*280 x2\[6\]
*281 x2\[7\]
*282 x2\[8\]
*283 x2\[9\]
*284 x3\[0\]
*285 x3\[10\]
*286 x3\[11\]
*287 x3\[12\]
*288 x3\[13\]
*289 x3\[14\]
*290 x3\[15\]
*291 x3\[1\]
*292 x3\[2\]
*293 x3\[3\]
*294 x3\[4\]
*295 x3\[5\]
*296 x3\[6\]
*297 x3\[7\]
*298 x3\[8\]
*299 x3\[9\]
*300 x4\[0\]
*301 x4\[10\]
*302 x4\[11\]
*303 x4\[12\]
*304 x4\[13\]
*305 x4\[14\]
*306 x4\[15\]
*307 x4\[1\]
*308 x4\[2\]
*309 x4\[3\]
*310 x4\[4\]
*311 x4\[5\]
*312 x4\[6\]
*313 x4\[7\]
*314 x4\[8\]
*315 x4\[9\]
*316 x5\[0\]
*317 x5\[10\]
*318 x5\[11\]
*319 x5\[12\]
*320 x5\[13\]
*321 x5\[14\]
*322 x5\[15\]
*323 x5\[1\]
*324 x5\[2\]
*325 x5\[3\]
*326 x5\[4\]
*327 x5\[5\]
*328 x5\[6\]
*329 x5\[7\]
*330 x5\[8\]
*331 x5\[9\]
*332 mprj1
*333 mprj2
*334 mprj3
*335 mprj4
*336 mprj5
*337 ro1
*338 ro10
*339 ro11
*340 ro12
*341 ro13
*342 ro14
*343 ro15
*344 ro16
*345 ro2
*346 ro3
*347 ro4
*348 ro5
*349 ro6
*350 ro7
*351 ro8
*352 ro9

*PORTS
analog_io[0] I
analog_io[10] I
analog_io[11] I
analog_io[12] I
analog_io[13] I
analog_io[14] I
analog_io[15] I
analog_io[16] I
analog_io[17] I
analog_io[18] I
analog_io[19] I
analog_io[1] I
analog_io[20] I
analog_io[21] I
analog_io[22] I
analog_io[23] I
analog_io[24] I
analog_io[25] I
analog_io[26] I
analog_io[27] I
analog_io[28] I
analog_io[2] I
analog_io[3] I
analog_io[4] I
analog_io[5] I
analog_io[6] I
analog_io[7] I
analog_io[8] I
analog_io[9] I
io_in[0] I
io_in[10] I
io_in[11] I
io_in[12] I
io_in[13] I
io_in[14] I
io_in[15] I
io_in[16] I
io_in[17] I
io_in[18] I
io_in[19] I
io_in[1] I
io_in[20] I
io_in[21] I
io_in[22] I
io_in[23] I
io_in[24] I
io_in[25] I
io_in[26] I
io_in[27] I
io_in[28] I
io_in[29] I
io_in[2] I
io_in[30] I
io_in[31] I
io_in[32] I
io_in[33] I
io_in[34] I
io_in[35] I
io_in[36] I
io_in[37] I
io_in[3] I
io_in[4] I
io_in[5] I
io_in[6] I
io_in[7] I
io_in[8] I
io_in[9] I
io_oeb[0] O
io_oeb[10] O
io_oeb[11] O
io_oeb[12] O
io_oeb[13] O
io_oeb[14] O
io_oeb[15] O
io_oeb[16] O
io_oeb[17] O
io_oeb[18] O
io_oeb[19] O
io_oeb[1] O
io_oeb[20] O
io_oeb[21] O
io_oeb[22] O
io_oeb[23] O
io_oeb[24] O
io_oeb[25] O
io_oeb[26] O
io_oeb[27] O
io_oeb[28] O
io_oeb[29] O
io_oeb[2] O
io_oeb[30] O
io_oeb[31] O
io_oeb[32] O
io_oeb[33] O
io_oeb[34] O
io_oeb[35] O
io_oeb[36] O
io_oeb[37] O
io_oeb[3] O
io_oeb[4] O
io_oeb[5] O
io_oeb[6] O
io_oeb[7] O
io_oeb[8] O
io_oeb[9] O
io_out[0] O
io_out[10] O
io_out[11] O
io_out[12] O
io_out[13] O
io_out[14] O
io_out[15] O
io_out[16] O
io_out[17] O
io_out[18] O
io_out[19] O
io_out[1] O
io_out[20] O
io_out[21] O
io_out[22] O
io_out[23] O
io_out[24] O
io_out[25] O
io_out[26] O
io_out[27] O
io_out[28] O
io_out[29] O
io_out[2] O
io_out[30] O
io_out[31] O
io_out[32] O
io_out[33] O
io_out[34] O
io_out[35] O
io_out[36] O
io_out[37] O
io_out[3] O
io_out[4] O
io_out[5] O
io_out[6] O
io_out[7] O
io_out[8] O
io_out[9] O
wb_clk_i I
wb_rst_i I
wbs_ack_o O
wbs_adr_i[0] I
wbs_adr_i[10] I
wbs_adr_i[11] I
wbs_adr_i[12] I
wbs_adr_i[13] I
wbs_adr_i[14] I
wbs_adr_i[15] I
wbs_adr_i[16] I
wbs_adr_i[17] I
wbs_adr_i[18] I
wbs_adr_i[19] I
wbs_adr_i[1] I
wbs_adr_i[20] I
wbs_adr_i[21] I
wbs_adr_i[22] I
wbs_adr_i[23] I
wbs_adr_i[24] I
wbs_adr_i[25] I
wbs_adr_i[26] I
wbs_adr_i[27] I
wbs_adr_i[28] I
wbs_adr_i[29] I
wbs_adr_i[2] I
wbs_adr_i[30] I
wbs_adr_i[31] I
wbs_adr_i[3] I
wbs_adr_i[4] I
wbs_adr_i[5] I
wbs_adr_i[6] I
wbs_adr_i[7] I
wbs_adr_i[8] I
wbs_adr_i[9] I
wbs_cyc_i I
wbs_dat_i[0] I
wbs_dat_i[10] I
wbs_dat_i[11] I
wbs_dat_i[12] I
wbs_dat_i[13] I
wbs_dat_i[14] I
wbs_dat_i[15] I
wbs_dat_i[16] I
wbs_dat_i[17] I
wbs_dat_i[18] I
wbs_dat_i[19] I
wbs_dat_i[1] I
wbs_dat_i[20] I
wbs_dat_i[21] I
wbs_dat_i[22] I
wbs_dat_i[23] I
wbs_dat_i[24] I
wbs_dat_i[25] I
wbs_dat_i[26] I
wbs_dat_i[27] I
wbs_dat_i[28] I
wbs_dat_i[29] I
wbs_dat_i[2] I
wbs_dat_i[30] I
wbs_dat_i[31] I
wbs_dat_i[3] I
wbs_dat_i[4] I
wbs_dat_i[5] I
wbs_dat_i[6] I
wbs_dat_i[7] I
wbs_dat_i[8] I
wbs_dat_i[9] I
wbs_dat_o[0] O
wbs_dat_o[10] O
wbs_dat_o[11] O
wbs_dat_o[12] O
wbs_dat_o[13] O
wbs_dat_o[14] O
wbs_dat_o[15] O
wbs_dat_o[16] O
wbs_dat_o[17] O
wbs_dat_o[18] O
wbs_dat_o[19] O
wbs_dat_o[1] O
wbs_dat_o[20] O
wbs_dat_o[21] O
wbs_dat_o[22] O
wbs_dat_o[23] O
wbs_dat_o[24] O
wbs_dat_o[25] O
wbs_dat_o[26] O
wbs_dat_o[27] O
wbs_dat_o[28] O
wbs_dat_o[29] O
wbs_dat_o[2] O
wbs_dat_o[30] O
wbs_dat_o[31] O
wbs_dat_o[3] O
wbs_dat_o[4] O
wbs_dat_o[5] O
wbs_dat_o[6] O
wbs_dat_o[7] O
wbs_dat_o[8] O
wbs_dat_o[9] O
wbs_sel_i[0] I
wbs_sel_i[1] I
wbs_sel_i[2] I
wbs_sel_i[3] I
wbs_stb_i I
wbs_we_i I

*D_NET *30 0.454961
*CONN
*P io_in[0] I
*I *344:s1 I *D sky130_osu_ring_oscillator_mpr2ya_8_b0r2
*I *351:s1 I *D sky130_osu_ring_oscillator_mpr2ya_8_b0r1
*I *350:s1 I *D sky130_osu_ring_oscillator_mpr2xa_8_b0r1
*I *345:s1 I *D sky130_osu_ring_oscillator_mpr2at_8_b0r1
*I *337:s1 I *D sky130_osu_ring_oscillator_mpr2aa_8_b0r1
*I *346:s1 I *D sky130_osu_ring_oscillator_mpr2ca_8_b0r1
*I *347:s1 I *D sky130_osu_ring_oscillator_mpr2ct_8_b0r1
*I *348:s1 I *D sky130_osu_ring_oscillator_mpr2ea_8_b0r1
*I *349:s1 I *D sky130_osu_ring_oscillator_mpr2et_8_b0r1
*I *352:s1 I *D sky130_osu_ring_oscillator_mpr2aa_8_b0r2
*I *338:s1 I *D sky130_osu_ring_oscillator_mpr2at_8_b0r2
*I *339:s1 I *D sky130_osu_ring_oscillator_mpr2ca_8_b0r2
*I *340:s1 I *D sky130_osu_ring_oscillator_mpr2ct_8_b0r2
*I *341:s1 I *D sky130_osu_ring_oscillator_mpr2ea_8_b0r2
*I *342:s1 I *D sky130_osu_ring_oscillator_mpr2et_8_b0r2
*I *343:s1 I *D sky130_osu_ring_oscillator_mpr2xa_8_b0r2
*CAP
1 io_in[0] 0.0739818
2 *344:s1 0.000169651
3 *351:s1 0
4 *350:s1 0.000291925
5 *345:s1 7.28406e-06
6 *337:s1 0.000881636
7 *346:s1 0.000225034
8 *347:s1 0.000248387
9 *348:s1 0.00018986
10 *349:s1 0.000589218
11 *352:s1 0.000286402
12 *338:s1 0.00259726
13 *339:s1 0.00150811
14 *340:s1 0.000191554
15 *341:s1 0.00048434
16 *342:s1 0
17 *343:s1 0
18 *30:426 0.000630796
19 *30:384 7.75001e-06
20 *30:373 0.00334734
21 *30:371 0.00347464
22 *30:365 0.00172718
23 *30:355 0.0052575
24 *30:353 0.00567929
25 *30:333 0.00541962
26 *30:315 0.00558699
27 *30:307 0.00543699
28 *30:305 0.00421562
29 *30:283 0.00120554
30 *30:275 0.00420447
31 *30:260 0.00469529
32 *30:252 0.00530881
33 *30:250 0.00452042
34 *30:244 0.000929622
35 *30:236 0.00417952
36 *30:234 0.00455293
37 *30:220 0.00118991
38 *30:216 0.00187773
39 *30:200 0.00506069
40 *30:181 0.00425008
41 *30:175 0.00350012
42 *30:173 0.00294937
43 *30:171 0.00106885
44 *30:140 0.00450961
45 *30:138 0.00331202
46 *30:110 0.00450117
47 *30:108 0.00442844
48 *30:88 0.00420882
49 *30:73 0.00473166
50 *30:65 0.00532511
51 *30:63 0.00514046
52 *30:50 0.000565196
53 *30:42 0.00637264
54 *30:35 0.000434744
55 *30:27 0.0076883
56 *30:25 0.00324676
57 *30:21 0.00330377
58 *30:9 0.0336946
59 *30:7 0.0315026
60 *30:5 0.0739818
61 *337:s1 *41:396 0.000468883
62 *338:s1 *267:20 0
63 *339:s1 *253:8 0
64 *340:s1 *340:start 7.39868e-06
65 *340:s1 *41:149 0.000288488
66 *341:s1 *341:start 9.65021e-05
67 *346:s1 *346:start 8.97405e-05
68 *347:s1 *347:start 4.96303e-05
69 *30:9 *344:s5 0
70 *30:9 *41:9 0.0265871
71 *30:9 *61:43 0.000112972
72 *30:21 *41:15 0.0034292
73 *30:21 *41:41 0.000875477
74 *30:21 *52:23 0.00196841
75 *30:21 *62:13 0.000187853
76 *30:25 *41:41 0.00071102
77 *30:27 *41:43 0.00751899
78 *30:35 *343:start 5.45644e-05
79 *30:42 *41:43 0.000588837
80 *30:42 *41:75 0.000506493
81 *30:50 *342:start 0.000100069
82 *30:63 *41:85 0
83 *30:65 *255:8 0
84 *30:73 *41:115 0.00101549
85 *30:88 *41:115 0.000771254
86 *30:88 *41:145 0.00761935
87 *30:88 *41:160 2.53488e-05
88 *30:108 *41:160 0.000348865
89 *30:171 *41:201 0.00154107
90 *30:175 *41:187 6.44037e-05
91 *30:175 *41:208 0.00842993
92 *30:181 *41:222 0
93 *30:216 *265:12 0
94 *30:234 *41:239 0
95 *30:236 *41:268 0.00372266
96 *30:275 *41:284 0.00788656
97 *30:315 *41:314 0.000876821
98 *30:333 *41:314 0.00029932
99 *30:333 *41:330 0.0029897
100 *30:353 *346:s2 0
101 *30:353 *41:330 0.000296869
102 *30:355 *259:8 0
103 *30:371 *41:373 0
104 *30:373 *41:380 0.00653261
105 *30:373 *41:396 2.15604e-05
*RES
1 io_in[0] *30:5 254.236 
2 *30:5 *30:7 8 
3 *30:7 *30:9 896.701 
4 *30:9 *30:21 21.3243 
5 *30:21 *30:25 10.5461 
6 *30:25 *30:27 95.3996 
7 *30:27 *30:35 39.6114 
8 *30:35 *343:s1 15 
9 *30:27 *30:42 111.07 
10 *30:42 *30:50 27.8843 
11 *30:50 *342:s1 23 
12 *30:42 *30:63 23.4364 
13 *30:63 *30:65 91.7021 
14 *30:65 *30:73 31.8878 
15 *30:73 *341:s1 49.0148 
16 *30:73 *30:88 106.844 
17 *30:88 *340:s1 20.2096 
18 *30:88 *30:108 23.4364 
19 *30:108 *30:110 76.9536 
20 *30:110 *339:s1 27.172 
21 *339:s1 *30:138 19.8329 
22 *30:138 *30:140 68.5436 
23 *30:140 *338:s1 35.6389 
24 *338:s1 *30:171 49.4994 
25 *30:171 *30:173 8 
26 *30:173 *30:175 107.901 
27 *30:175 *30:181 17.6875 
28 *30:181 *352:s1 44.3489 
29 *30:181 *30:200 78.3207 
30 *30:200 *30:216 45.7446 
31 *30:216 *30:220 19.8264 
32 *30:220 *30:234 42.4512 
33 *30:234 *30:236 100.154 
34 *30:236 *30:244 10.3128 
35 *30:244 *30:250 8.28187 
36 *30:250 *30:252 100.858 
37 *30:252 *30:260 22.4875 
38 *30:260 *349:s1 34.1482 
39 *30:260 *30:275 111.422 
40 *30:275 *30:283 10.9997 
41 *30:283 *348:s1 10.9622 
42 *30:283 *30:305 8.36773 
43 *30:305 *30:307 95.2236 
44 *30:307 *30:315 30.1271 
45 *30:315 *347:s1 20.5825 
46 *30:315 *30:333 108.605 
47 *30:333 *346:s1 20.0025 
48 *30:333 *30:353 22.9897 
49 *30:353 *30:355 104.379 
50 *30:355 *30:365 45.9293 
51 *30:365 *30:371 19.0613 
52 *30:371 *30:373 84.6593 
53 *30:373 *337:s1 36.0146 
54 *337:s1 *30:384 0.176071 
55 *30:355 *345:s1 0.176071 
56 *30:244 *350:s1 13.0978 
57 *30:220 *351:s1 23 
58 *30:21 *30:426 47.9739 
59 *30:426 *344:s1 3.88393 
*END

*D_NET *41 0.478552
*CONN
*P io_in[1] I
*I *350:s2 I *D sky130_osu_ring_oscillator_mpr2xa_8_b0r1
*I *349:s2 I *D sky130_osu_ring_oscillator_mpr2et_8_b0r1
*I *347:s2 I *D sky130_osu_ring_oscillator_mpr2ct_8_b0r1
*I *337:s2 I *D sky130_osu_ring_oscillator_mpr2aa_8_b0r1
*I *345:s2 I *D sky130_osu_ring_oscillator_mpr2at_8_b0r1
*I *346:s2 I *D sky130_osu_ring_oscillator_mpr2ca_8_b0r1
*I *348:s2 I *D sky130_osu_ring_oscillator_mpr2ea_8_b0r1
*I *351:s2 I *D sky130_osu_ring_oscillator_mpr2ya_8_b0r1
*I *352:s2 I *D sky130_osu_ring_oscillator_mpr2aa_8_b0r2
*I *338:s2 I *D sky130_osu_ring_oscillator_mpr2at_8_b0r2
*I *339:s2 I *D sky130_osu_ring_oscillator_mpr2ca_8_b0r2
*I *340:s2 I *D sky130_osu_ring_oscillator_mpr2ct_8_b0r2
*I *341:s2 I *D sky130_osu_ring_oscillator_mpr2ea_8_b0r2
*I *342:s2 I *D sky130_osu_ring_oscillator_mpr2et_8_b0r2
*I *343:s2 I *D sky130_osu_ring_oscillator_mpr2xa_8_b0r2
*I *344:s2 I *D sky130_osu_ring_oscillator_mpr2ya_8_b0r2
*CAP
1 io_in[1] 0.0739184
2 *350:s2 0.00185978
3 *349:s2 0.00259144
4 *347:s2 0.000374147
5 *337:s2 0.000233958
6 *345:s2 0
7 *346:s2 0.00215509
8 *348:s2 5.82725e-05
9 *351:s2 0.000240457
10 *352:s2 0
11 *338:s2 0
12 *339:s2 0.00208903
13 *340:s2 5.10237e-05
14 *341:s2 6.06291e-05
15 *342:s2 0.000110926
16 *343:s2 0.000125116
17 *344:s2 0.00042045
18 *41:396 0.00278354
19 *41:380 0.00531691
20 *41:373 0.00196817
21 *41:359 0.00478394
22 *41:357 0.00284345
23 *41:355 0.0047214
24 *41:330 0.00552965
25 *41:328 0.0030061
26 *41:322 0.00446762
27 *41:320 0.00290969
28 *41:318 0.00194291
29 *41:314 0.00580527
30 *41:306 0.00241029
31 *41:284 0.00992469
32 *41:282 0.00333616
33 *41:280 0.00296068
34 *41:276 0.0051746
35 *41:274 0.00517179
36 *41:268 0.00199915
37 *41:266 0.00323579
38 *41:260 0.00604692
39 *41:239 0.00446044
40 *41:233 0.00509979
41 *41:231 0.00441867
42 *41:222 0.00201302
43 *41:208 0.00621371
44 *41:201 0.00166152
45 *41:187 0.00894842
46 *41:185 0.00470429
47 *41:160 0.00800846
48 *41:149 0.000993917
49 *41:145 0.00888429
50 *41:137 0.00226305
51 *41:115 0.0092204
52 *41:101 0.0029701
53 *41:85 0.00769009
54 *41:77 0.00522134
55 *41:75 0.00520279
56 *41:55 0.00183451
57 *41:43 0.00506552
58 *41:41 0.00418406
59 *41:15 0.00345416
60 *41:9 0.0237019
61 *41:7 0.0219757
62 *41:5 0.0739184
63 *350:s2 *280:10 0
64 *41:9 *61:17 0.000150895
65 *41:15 *61:17 0.000152928
66 *41:15 *61:33 0.00207067
67 *41:15 *62:13 2.50251e-05
68 *337:s1 *41:396 0.000468883
69 *340:s1 *41:149 0.000288488
70 *30:9 *41:9 0.0265871
71 *30:21 *41:15 0.0034292
72 *30:21 *41:41 0.000875477
73 *30:25 *41:41 0.00071102
74 *30:27 *41:43 0.00751899
75 *30:42 *41:43 0.000588837
76 *30:42 *41:75 0.000506493
77 *30:63 *41:85 0
78 *30:73 *41:115 0.00101549
79 *30:88 *41:115 0.000771254
80 *30:88 *41:145 0.00761935
81 *30:88 *41:160 2.53488e-05
82 *30:108 *41:160 0.000348865
83 *30:171 *41:201 0.00154107
84 *30:175 *41:187 6.44037e-05
85 *30:175 *41:208 0.00842993
86 *30:181 *41:222 0
87 *30:234 *41:239 0
88 *30:236 *41:268 0.00372266
89 *30:275 *41:284 0.00788656
90 *30:315 *41:314 0.000876821
91 *30:333 *41:314 0.00029932
92 *30:333 *41:330 0.0029897
93 *30:353 *346:s2 0
94 *30:353 *41:330 0.000296869
95 *30:371 *41:373 0
96 *30:373 *41:380 0.00653261
97 *30:373 *41:396 2.15604e-05
*RES
1 io_in[1] *41:5 254.065 
2 *41:5 *41:7 8 
3 *41:7 *41:9 690.345 
4 *41:9 *41:15 25.8448 
5 *41:15 *344:s2 39.3836 
6 *41:15 *41:41 23.8093 
7 *41:41 *41:43 104.379 
8 *41:43 *41:55 41.5954 
9 *41:55 *343:s2 17.9363 
10 *41:43 *41:75 23.57 
11 *41:75 *41:77 108.605 
12 *41:77 *41:85 20.2203 
13 *41:85 *41:101 44.1693 
14 *41:101 *342:s2 10.5013 
15 *41:85 *41:115 104.379 
16 *41:115 *41:137 48.6589 
17 *41:137 *341:s2 1.50179 
18 *41:115 *41:145 96.8082 
19 *41:145 *41:149 37.0607 
20 *41:149 *340:s2 31.0564 
21 *41:145 *41:160 117.585 
22 *41:160 *339:s2 42.8742 
23 *41:160 *41:185 14.9143 
24 *41:185 *41:187 93.7529 
25 *41:187 *41:201 42.9655 
26 *41:201 *338:s2 23 
27 *41:187 *41:208 114.239 
28 *41:208 *41:222 47.5785 
29 *41:222 *352:s2 23 
30 *41:208 *41:231 21.75 
31 *41:231 *41:233 79.8743 
32 *41:233 *41:239 21.5515 
33 *41:239 *351:s2 19.9611 
34 *41:239 *41:260 59.305 
35 *41:260 *41:266 21.3797 
36 *41:266 *41:268 54.375 
37 *41:268 *41:274 17.2581 
38 *41:274 *41:276 110.718 
39 *41:276 *41:280 9.25813 
40 *41:280 *41:282 8 
41 *41:282 *41:284 111.422 
42 *41:284 *41:306 49.3441 
43 *41:306 *348:s2 1.48107 
44 *41:284 *41:314 100.154 
45 *41:314 *41:318 13.3797 
46 *41:318 *41:320 8 
47 *41:320 *41:322 67.0521 
48 *41:322 *41:328 21.3797 
49 *41:328 *41:330 47.3321 
50 *41:330 *346:s2 44.8554 
51 *41:330 *41:355 43.4586 
52 *41:355 *41:357 64.5043 
53 *41:357 *41:359 1.09786 
54 *41:359 *41:373 43.8295 
55 *41:373 *345:s2 23 
56 *41:359 *41:380 90.9979 
57 *41:380 *41:396 43.5677 
58 *41:396 *337:s2 18.6931 
59 *41:318 *347:s2 9.46067 
60 *41:280 *349:s2 40.5487 
61 *41:260 *350:s2 42.9096 
*END

*D_NET *52 0.482812
*CONN
*P io_in[2] I
*I *337:s3 I *D sky130_osu_ring_oscillator_mpr2aa_8_b0r1
*I *345:s3 I *D sky130_osu_ring_oscillator_mpr2at_8_b0r1
*I *346:s3 I *D sky130_osu_ring_oscillator_mpr2ca_8_b0r1
*I *347:s3 I *D sky130_osu_ring_oscillator_mpr2ct_8_b0r1
*I *348:s3 I *D sky130_osu_ring_oscillator_mpr2ea_8_b0r1
*I *349:s3 I *D sky130_osu_ring_oscillator_mpr2et_8_b0r1
*I *350:s3 I *D sky130_osu_ring_oscillator_mpr2xa_8_b0r1
*I *351:s3 I *D sky130_osu_ring_oscillator_mpr2ya_8_b0r1
*I *352:s3 I *D sky130_osu_ring_oscillator_mpr2aa_8_b0r2
*I *338:s3 I *D sky130_osu_ring_oscillator_mpr2at_8_b0r2
*I *339:s3 I *D sky130_osu_ring_oscillator_mpr2ca_8_b0r2
*I *340:s3 I *D sky130_osu_ring_oscillator_mpr2ct_8_b0r2
*I *341:s3 I *D sky130_osu_ring_oscillator_mpr2ea_8_b0r2
*I *342:s3 I *D sky130_osu_ring_oscillator_mpr2et_8_b0r2
*I *343:s3 I *D sky130_osu_ring_oscillator_mpr2xa_8_b0r2
*I *344:s3 I *D sky130_osu_ring_oscillator_mpr2ya_8_b0r2
*CAP
1 io_in[2] 0.0561648
2 *337:s3 0.00249436
3 *345:s3 0.00200492
4 *346:s3 0.00302794
5 *347:s3 0.00272036
6 *348:s3 0.00233483
7 *349:s3 0.000425148
8 *350:s3 0.00244908
9 *351:s3 0.00248048
10 *352:s3 0.000109804
11 *338:s3 0.000121662
12 *339:s3 0.00206744
13 *340:s3 0.00226621
14 *341:s3 9.82934e-05
15 *342:s3 0.000110076
16 *343:s3 0.000117163
17 *344:s3 0.000124928
18 *52:469 0.00580982
19 *52:467 0.00331546
20 *52:444 0.00242628
21 *52:440 0.0037646
22 *52:417 0.00892608
23 *52:415 0.00268646
24 *52:413 0.0016027
25 *52:392 0.00701069
26 *52:390 0.00347639
27 *52:364 0.00549216
28 *52:354 0.00552848
29 *52:352 0.00402576
30 *52:330 0.00352291
31 *52:324 0.00501819
32 *52:322 0.00363422
33 *52:286 0.00746741
34 *52:259 0.0102239
35 *52:254 8.70804e-06
36 *52:247 0.00243992
37 *52:235 0.00624277
38 *52:231 0.00383833
39 *52:219 0.00214137
40 *52:207 0.00574526
41 *52:199 0.00299651
42 *52:197 0.00336658
43 *52:172 0.0065853
44 *52:170 0.00475245
45 *52:147 0.00496478
46 *52:145 0.00178962
47 *52:143 0.00251209
48 *52:135 0.00289702
49 *52:117 0.00627222
50 *52:113 0.0044565
51 *52:111 0.00377086
52 *52:93 0.00276793
53 *52:77 0.00749584
54 *52:75 0.00550192
55 *52:55 0.002087
56 *52:39 0.00753272
57 *52:37 0.00457777
58 *52:23 0.00208912
59 *52:13 0.0125635
60 *52:11 0.0105993
61 *52:9 0.0210451
62 *52:7 0.0210451
63 *52:5 0.0561648
64 *339:s3 *339:s4 0.00234565
65 *339:s3 *61:206 0.000279771
66 *339:s3 *62:186 0.000493008
67 *340:s3 *340:s4 0.0019705
68 *340:s3 *61:158 0.00035449
69 *345:s3 *61:441 0.00136532
70 *346:s3 *61:401 0
71 *346:s3 *62:367 0
72 *346:s3 *291:18 0.00033362
73 *347:s3 *347:s4 0
74 *347:s3 *61:374 0
75 *348:s3 *348:s4 9.18296e-06
76 *351:s3 *61:266 0
77 *52:13 *62:13 0.0306163
78 *52:23 *62:13 0.000564702
79 *52:39 *61:43 0
80 *52:55 *61:49 0.00177087
81 *52:77 *62:100 0.00126707
82 *52:93 *61:116 0.000434111
83 *52:111 *62:100 0.000506493
84 *52:113 *271:14 0
85 *52:117 *271:14 0
86 *52:135 *61:124 0
87 *52:143 *271:14 0
88 *52:147 *61:158 0.00126781
89 *52:147 *271:14 0
90 *52:147 *302:13 0.000667986
91 *52:170 *61:181 0
92 *52:170 *62:162 0
93 *52:170 *271:14 0
94 *52:172 *61:181 0
95 *52:172 *271:14 0
96 *52:197 *62:188 0
97 *52:199 *62:188 0.00660677
98 *52:199 *62:208 0.000692454
99 *52:199 *271:14 2.31765e-05
100 *52:199 *313:14 0
101 *52:207 *61:226 0.000918231
102 *52:207 *62:208 0.00100942
103 *52:207 *62:210 7.70687e-05
104 *52:219 *314:14 0.000520793
105 *52:231 *62:210 0.00273187
106 *52:231 *62:220 0.000105668
107 *52:235 *62:220 0
108 *52:247 *61:246 0
109 *52:259 *61:262 0.00727853
110 *52:259 *62:220 0
111 *52:259 *62:246 0
112 *52:286 *61:304 0.00144622
113 *52:286 *62:246 0
114 *52:286 *62:268 0
115 *52:322 *61:304 8.22613e-05
116 *52:322 *61:308 0.00177113
117 *52:322 *62:268 0
118 *52:324 *61:310 0.00709111
119 *52:324 *61:334 0.00105875
120 *52:330 *61:334 0.00111174
121 *52:330 *62:307 4.46181e-06
122 *52:354 *294:8 0
123 *52:364 *61:336 0
124 *52:390 *62:321 0.000597546
125 *52:390 *62:323 0
126 *52:392 *61:370 0.00831187
127 *52:392 *62:323 0
128 *52:392 *62:339 0.000370034
129 *52:413 *61:370 0.000506493
130 *52:413 *62:339 0.00138346
131 *52:417 *62:343 0
132 *52:440 *62:369 0.00693489
133 *52:444 *61:441 0.000125523
134 *52:444 *62:396 0.00015183
135 *52:469 *61:443 0.00340673
136 *52:469 *61:449 0.000979657
137 *30:21 *52:23 0.00196841
*RES
1 io_in[2] *52:5 197.564 
2 *52:5 *52:7 8 
3 *52:7 *52:9 486.806 
4 *52:9 *52:11 8 
5 *52:11 *52:13 56.3845 
6 *52:13 *52:23 39.3667 
7 *52:23 *344:s3 17.7654 
8 *52:13 *52:37 8 
9 *52:37 *52:39 103.675 
10 *52:39 *52:55 44.0842 
11 *52:55 *343:s3 17.7602 
12 *52:39 *52:75 25.1156 
13 *52:75 *52:77 108.605 
14 *52:77 *52:93 42.2967 
15 *52:93 *342:s3 10.4702 
16 *52:77 *52:111 23.3982 
17 *52:111 *52:113 78.9836 
18 *52:113 *52:117 22.6407 
19 *52:117 *52:135 48.4415 
20 *52:135 *341:s3 2.18536 
21 *52:117 *52:143 56.8814 
22 *52:143 *52:145 1.09786 
23 *52:145 *52:147 51.1643 
24 *52:147 *340:s3 46.7977 
25 *52:147 *52:170 21.6879 
26 *52:170 *52:172 86.7514 
27 *52:172 *339:s3 45.6439 
28 *52:172 *52:197 16.1157 
29 *52:197 *52:199 93.7529 
30 *52:199 *52:207 21.0789 
31 *52:207 *52:219 44.4984 
32 *52:219 *338:s3 17.7239 
33 *52:207 *52:231 103.675 
34 *52:231 *52:235 10.4193 
35 *52:235 *52:247 47.7362 
36 *52:247 *352:s3 17.0818 
37 *352:s3 *52:254 0.196786 
38 *52:235 *52:259 107.196 
39 *52:259 *351:s3 48.3459 
40 *52:259 *52:286 107.901 
41 *52:286 *350:s3 48.1521 
42 *52:286 *52:322 21.6627 
43 *52:322 *52:324 104.379 
44 *52:324 *52:330 24.0416 
45 *52:330 *349:s3 22.4454 
46 *52:330 *52:352 22.6614 
47 *52:352 *52:354 67.4664 
48 *52:354 *52:364 48.6263 
49 *52:364 *348:s3 18.4896 
50 *52:364 *52:390 18.334 
51 *52:390 *52:392 106.492 
52 *52:392 *347:s3 48.0327 
53 *52:392 *52:413 49.8386 
54 *52:413 *52:415 3.00357 
55 *52:415 *52:417 58.2071 
56 *52:417 *346:s3 48.1311 
57 *52:417 *52:440 108.605 
58 *52:440 *52:444 9.77333 
59 *52:444 *345:s3 39.7552 
60 *52:444 *52:467 8 
61 *52:467 *52:469 105.788 
62 *52:469 *337:s3 45.5425 
*END

*D_NET *61 0.409756
*CONN
*P io_in[3] I
*I *350:s4 I *D sky130_osu_ring_oscillator_mpr2xa_8_b0r1
*I *337:s4 I *D sky130_osu_ring_oscillator_mpr2aa_8_b0r1
*I *345:s4 I *D sky130_osu_ring_oscillator_mpr2at_8_b0r1
*I *346:s4 I *D sky130_osu_ring_oscillator_mpr2ca_8_b0r1
*I *347:s4 I *D sky130_osu_ring_oscillator_mpr2ct_8_b0r1
*I *348:s4 I *D sky130_osu_ring_oscillator_mpr2ea_8_b0r1
*I *349:s4 I *D sky130_osu_ring_oscillator_mpr2et_8_b0r1
*I *351:s4 I *D sky130_osu_ring_oscillator_mpr2ya_8_b0r1
*I *352:s4 I *D sky130_osu_ring_oscillator_mpr2aa_8_b0r2
*I *338:s4 I *D sky130_osu_ring_oscillator_mpr2at_8_b0r2
*I *339:s4 I *D sky130_osu_ring_oscillator_mpr2ca_8_b0r2
*I *340:s4 I *D sky130_osu_ring_oscillator_mpr2ct_8_b0r2
*I *341:s4 I *D sky130_osu_ring_oscillator_mpr2ea_8_b0r2
*I *342:s4 I *D sky130_osu_ring_oscillator_mpr2et_8_b0r2
*I *343:s4 I *D sky130_osu_ring_oscillator_mpr2xa_8_b0r2
*I *344:s4 I *D sky130_osu_ring_oscillator_mpr2ya_8_b0r2
*CAP
1 io_in[3] 0.000922517
2 *350:s4 0.00108845
3 *337:s4 0.00112209
4 *345:s4 0.00210852
5 *346:s4 0.000338437
6 *347:s4 0.0019446
7 *348:s4 0.00211079
8 *349:s4 0.000181698
9 *351:s4 0.0003693
10 *352:s4 0.00010712
11 *338:s4 0.00116044
12 *339:s4 0.00130234
13 *340:s4 0.00121169
14 *341:s4 0.000523083
15 *342:s4 0.002316
16 *343:s4 0.000484299
17 *344:s4 5.82725e-05
18 *61:460 0
19 *61:449 0.0015029
20 *61:443 0.0028846
21 *61:441 0.00292301
22 *61:435 0.000949826
23 *61:416 0.00465283
24 *61:414 0.00307491
25 *61:401 0.00138907
26 *61:397 0.00513846
27 *61:395 0.00408783
28 *61:374 0.00222253
29 *61:370 0.00339934
30 *61:368 0.0034301
31 *61:338 0.00241948
32 *61:336 0.00506248
33 *61:334 0.00597047
34 *61:314 0.00145623
35 *61:310 0.00467556
36 *61:308 0.00307757
37 *61:304 0.00189113
38 *61:300 0.00256837
39 *61:294 0.00390201
40 *61:292 0.00355654
41 *61:288 0.00200475
42 *61:266 0.00144886
43 *61:262 0.00382458
44 *61:260 0.00274502
45 *61:246 0.00195538
46 *61:236 0.00251594
47 *61:228 0.00385983
48 *61:226 0.0040768
49 *61:208 0.00474525
50 *61:206 0.00304155
51 *61:183 0.00164372
52 *61:181 0.0038481
53 *61:179 0.0038481
54 *61:158 0.00240928
55 *61:148 0.00244943
56 *61:142 0.00465106
57 *61:140 0.00339921
58 *61:124 0.00142986
59 *61:120 0.0052023
60 *61:118 0.00429552
61 *61:116 0.00139856
62 *61:75 0.00494676
63 *61:49 0.00507516
64 *61:43 0.00532645
65 *61:41 0.00476492
66 *61:33 0.00114502
67 *61:17 0.00146421
68 *61:13 0.0717882
69 *61:11 0.0714108
70 *61:9 0.0117854
71 *61:7 0.0127079
72 *337:s4 *300:8 2.62078e-05
73 *337:s4 *316:5 0
74 *338:s4 *338:s5 0.00045298
75 *338:s4 *315:8 4.25919e-05
76 *338:s4 *331:6 8.11489e-05
77 *342:s4 *272:10 0.000334331
78 *342:s4 *304:10 0
79 *349:s4 *311:14 0
80 *350:s4 *264:22 0
81 *350:s4 *312:8 0
82 *61:13 *62:13 0
83 *61:17 *62:13 6.23199e-06
84 *61:43 *344:s5 0
85 *61:43 *62:39 0
86 *61:43 *62:41 0
87 *61:75 *288:10 0
88 *61:124 *341:s5 0.000104691
89 *61:124 *62:106 0.000205806
90 *61:158 *62:140 0
91 *61:158 *62:162 0.000154486
92 *61:158 *302:13 0.000670217
93 *61:181 *62:162 7.74136e-05
94 *61:181 *62:166 0.00281427
95 *61:181 *62:170 0
96 *61:181 *62:186 0
97 *61:206 *62:186 0.000154514
98 *61:208 *330:11 0.00763717
99 *61:226 *62:208 2.17681e-05
100 *61:226 *330:11 0.000779126
101 *61:228 *62:210 0.00416933
102 *61:228 *62:220 0.000178213
103 *61:228 *311:18 0
104 *61:228 *312:14 0
105 *61:236 *62:220 0.00110906
106 *61:236 *311:18 0
107 *61:262 *62:220 0
108 *61:262 *62:228 0.000140029
109 *61:304 *62:268 0
110 *61:310 *257:26 0
111 *61:314 *327:5 7.31525e-05
112 *61:334 *257:26 0
113 *61:336 *62:309 0
114 *61:336 *62:321 0
115 *61:336 *62:323 0.000119988
116 *61:397 *62:339 0
117 *61:397 *62:343 0
118 *61:397 *62:367 0.000248697
119 *61:435 *300:18 0.000184083
120 *61:441 *62:396 0.000804433
121 *339:s3 *339:s4 0.00234565
122 *339:s3 *61:206 0.000279771
123 *340:s3 *340:s4 0.0019705
124 *340:s3 *61:158 0.00035449
125 *345:s3 *61:441 0.00136532
126 *346:s3 *61:401 0
127 *347:s3 *347:s4 0
128 *347:s3 *61:374 0
129 *348:s3 *348:s4 9.18296e-06
130 *351:s3 *61:266 0
131 *30:9 *61:43 0.000112972
132 *41:9 *61:17 0.000150895
133 *41:15 *61:17 0.000152928
134 *41:15 *61:33 0.00207067
135 *52:39 *61:43 0
136 *52:55 *61:49 0.00177087
137 *52:93 *61:116 0.000434111
138 *52:135 *61:124 0
139 *52:147 *61:158 0.00126781
140 *52:170 *61:181 0
141 *52:172 *61:181 0
142 *52:207 *61:226 0.000918231
143 *52:247 *61:246 0
144 *52:259 *61:262 0.00727853
145 *52:286 *61:304 0.00144622
146 *52:322 *61:304 8.22613e-05
147 *52:322 *61:308 0.00177113
148 *52:324 *61:310 0.00709111
149 *52:324 *61:334 0.00105875
150 *52:330 *61:334 0.00111174
151 *52:364 *61:336 0
152 *52:392 *61:370 0.00831187
153 *52:413 *61:370 0.000506493
154 *52:444 *61:441 0.000125523
155 *52:469 *61:443 0.00340673
156 *52:469 *61:449 0.000979657
*RES