*SPEF "ieee 1481-1999"
*DESIGN "user_project_wrapper"
*DATE "11:11:11 Fri 11 11, 1111"
*VENDOR "OpenRCX"
*PROGRAM "Parallel Extraction"
*VERSION "1.0"
*DESIGN_FLOW "NAME_SCOPE LOCAL" "PIN_CAP NONE"
*DIVIDER /
*DELIMITER :
*BUS_DELIMITER []
*T_UNIT 1 NS
*C_UNIT 1 PF
*R_UNIT 1 OHM
*L_UNIT 1 HENRY

*NAME_MAP
*1 analog_io[0]
*2 analog_io[10]
*3 analog_io[11]
*4 analog_io[12]
*5 analog_io[13]
*6 analog_io[14]
*7 analog_io[15]
*8 analog_io[16]
*9 analog_io[17]
*10 analog_io[18]
*11 analog_io[19]
*12 analog_io[1]
*13 analog_io[20]
*14 analog_io[21]
*15 analog_io[22]
*16 analog_io[23]
*17 analog_io[24]
*18 analog_io[25]
*19 analog_io[26]
*20 analog_io[27]
*21 analog_io[28]
*22 analog_io[2]
*23 analog_io[3]
*24 analog_io[4]
*25 analog_io[5]
*26 analog_io[6]
*27 analog_io[7]
*28 analog_io[8]
*29 analog_io[9]
*30 io_in[0]
*31 io_in[10]
*32 io_in[11]
*33 io_in[12]
*34 io_in[13]
*35 io_in[14]
*36 io_in[15]
*37 io_in[16]
*38 io_in[17]
*39 io_in[18]
*40 io_in[19]
*41 io_in[1]
*42 io_in[20]
*43 io_in[21]
*44 io_in[22]
*45 io_in[23]
*46 io_in[24]
*47 io_in[25]
*48 io_in[26]
*49 io_in[27]
*50 io_in[28]
*51 io_in[29]
*52 io_in[2]
*53 io_in[30]
*54 io_in[31]
*55 io_in[32]
*56 io_in[33]
*57 io_in[34]
*58 io_in[35]
*59 io_in[36]
*60 io_in[37]
*61 io_in[3]
*62 io_in[4]
*63 io_in[5]
*64 io_in[6]
*65 io_in[7]
*66 io_in[8]
*67 io_in[9]
*68 io_oeb[0]
*69 io_oeb[10]
*70 io_oeb[11]
*71 io_oeb[12]
*72 io_oeb[13]
*73 io_oeb[14]
*74 io_oeb[15]
*75 io_oeb[16]
*76 io_oeb[17]
*77 io_oeb[18]
*78 io_oeb[19]
*79 io_oeb[1]
*80 io_oeb[20]
*81 io_oeb[21]
*82 io_oeb[22]
*83 io_oeb[23]
*84 io_oeb[24]
*85 io_oeb[25]
*86 io_oeb[26]
*87 io_oeb[27]
*88 io_oeb[28]
*89 io_oeb[29]
*90 io_oeb[2]
*91 io_oeb[30]
*92 io_oeb[31]
*93 io_oeb[32]
*94 io_oeb[33]
*95 io_oeb[34]
*96 io_oeb[35]
*97 io_oeb[36]
*98 io_oeb[37]
*99 io_oeb[3]
*100 io_oeb[4]
*101 io_oeb[5]
*102 io_oeb[6]
*103 io_oeb[7]
*104 io_oeb[8]
*105 io_oeb[9]
*106 io_out[0]
*107 io_out[10]
*108 io_out[11]
*109 io_out[12]
*110 io_out[13]
*111 io_out[14]
*112 io_out[15]
*113 io_out[16]
*114 io_out[17]
*115 io_out[18]
*116 io_out[19]
*117 io_out[1]
*118 io_out[20]
*119 io_out[21]
*120 io_out[22]
*121 io_out[23]
*122 io_out[24]
*123 io_out[25]
*124 io_out[26]
*125 io_out[27]
*126 io_out[28]
*127 io_out[29]
*128 io_out[2]
*129 io_out[30]
*130 io_out[31]
*131 io_out[32]
*132 io_out[33]
*133 io_out[34]
*134 io_out[35]
*135 io_out[36]
*136 io_out[37]
*137 io_out[3]
*138 io_out[4]
*139 io_out[5]
*140 io_out[6]
*141 io_out[7]
*142 io_out[8]
*143 io_out[9]
*146 wb_clk_i
*147 wb_rst_i
*148 wbs_ack_o
*149 wbs_adr_i[0]
*150 wbs_adr_i[10]
*151 wbs_adr_i[11]
*152 wbs_adr_i[12]
*153 wbs_adr_i[13]
*154 wbs_adr_i[14]
*155 wbs_adr_i[15]
*156 wbs_adr_i[16]
*157 wbs_adr_i[17]
*158 wbs_adr_i[18]
*159 wbs_adr_i[19]
*160 wbs_adr_i[1]
*161 wbs_adr_i[20]
*162 wbs_adr_i[21]
*163 wbs_adr_i[22]
*164 wbs_adr_i[23]
*165 wbs_adr_i[24]
*166 wbs_adr_i[25]
*167 wbs_adr_i[26]
*168 wbs_adr_i[27]
*169 wbs_adr_i[28]
*170 wbs_adr_i[29]
*171 wbs_adr_i[2]
*172 wbs_adr_i[30]
*173 wbs_adr_i[31]
*174 wbs_adr_i[3]
*175 wbs_adr_i[4]
*176 wbs_adr_i[5]
*177 wbs_adr_i[6]
*178 wbs_adr_i[7]
*179 wbs_adr_i[8]
*180 wbs_adr_i[9]
*181 wbs_cyc_i
*182 wbs_dat_i[0]
*183 wbs_dat_i[10]
*184 wbs_dat_i[11]
*185 wbs_dat_i[12]
*186 wbs_dat_i[13]
*187 wbs_dat_i[14]
*188 wbs_dat_i[15]
*189 wbs_dat_i[16]
*190 wbs_dat_i[17]
*191 wbs_dat_i[18]
*192 wbs_dat_i[19]
*193 wbs_dat_i[1]
*194 wbs_dat_i[20]
*195 wbs_dat_i[21]
*196 wbs_dat_i[22]
*197 wbs_dat_i[23]
*198 wbs_dat_i[24]
*199 wbs_dat_i[25]
*200 wbs_dat_i[26]
*201 wbs_dat_i[27]
*202 wbs_dat_i[28]
*203 wbs_dat_i[29]
*204 wbs_dat_i[2]
*205 wbs_dat_i[30]
*206 wbs_dat_i[31]
*207 wbs_dat_i[3]
*208 wbs_dat_i[4]
*209 wbs_dat_i[5]
*210 wbs_dat_i[6]
*211 wbs_dat_i[7]
*212 wbs_dat_i[8]
*213 wbs_dat_i[9]
*214 wbs_dat_o[0]
*215 wbs_dat_o[10]
*216 wbs_dat_o[11]
*217 wbs_dat_o[12]
*218 wbs_dat_o[13]
*219 wbs_dat_o[14]
*220 wbs_dat_o[15]
*221 wbs_dat_o[16]
*222 wbs_dat_o[17]
*223 wbs_dat_o[18]
*224 wbs_dat_o[19]
*225 wbs_dat_o[1]
*226 wbs_dat_o[20]
*227 wbs_dat_o[21]
*228 wbs_dat_o[22]
*229 wbs_dat_o[23]
*230 wbs_dat_o[24]
*231 wbs_dat_o[25]
*232 wbs_dat_o[26]
*233 wbs_dat_o[27]
*234 wbs_dat_o[28]
*235 wbs_dat_o[29]
*236 wbs_dat_o[2]
*237 wbs_dat_o[30]
*238 wbs_dat_o[31]
*239 wbs_dat_o[3]
*240 wbs_dat_o[4]
*241 wbs_dat_o[5]
*242 wbs_dat_o[6]
*243 wbs_dat_o[7]
*244 wbs_dat_o[8]
*245 wbs_dat_o[9]
*246 wbs_sel_i[0]
*247 wbs_sel_i[1]
*248 wbs_sel_i[2]
*249 wbs_sel_i[3]
*250 wbs_stb_i
*251 wbs_we_i
*252 x1\[0\]
*253 x1\[10\]
*254 x1\[11\]
*255 x1\[12\]
*256 x1\[13\]
*257 x1\[14\]
*258 x1\[15\]
*259 x1\[1\]
*260 x1\[2\]
*261 x1\[3\]
*262 x1\[4\]
*263 x1\[5\]
*264 x1\[6\]
*265 x1\[7\]
*266 x1\[8\]
*267 x1\[9\]
*268 x2\[0\]
*269 x2\[10\]
*270 x2\[11\]
*271 x2\[12\]
*272 x2\[13\]
*273 x2\[14\]
*274 x2\[15\]
*275 x2\[1\]
*276 x2\[2\]
*277 x2\[3\]
*278 x2\[4\]
*279 x2\[5\]
*280 x2\[6\]
*281 x2\[7\]
*282 x2\[8\]
*283 x2\[9\]
*284 x3\[0\]
*285 x3\[10\]
*286 x3\[11\]
*287 x3\[12\]
*288 x3\[13\]
*289 x3\[14\]
*290 x3\[15\]
*291 x3\[1\]
*292 x3\[2\]
*293 x3\[3\]
*294 x3\[4\]
*295 x3\[5\]
*296 x3\[6\]
*297 x3\[7\]
*298 x3\[8\]
*299 x3\[9\]
*300 x4\[0\]
*301 x4\[10\]
*302 x4\[11\]
*303 x4\[12\]
*304 x4\[13\]
*305 x4\[14\]
*306 x4\[15\]
*307 x4\[1\]
*308 x4\[2\]
*309 x4\[3\]
*310 x4\[4\]
*311 x4\[5\]
*312 x4\[6\]
*313 x4\[7\]
*314 x4\[8\]
*315 x4\[9\]
*316 x5\[0\]
*317 x5\[10\]
*318 x5\[11\]
*319 x5\[12\]
*320 x5\[13\]
*321 x5\[14\]
*322 x5\[15\]
*323 x5\[1\]
*324 x5\[2\]
*325 x5\[3\]
*326 x5\[4\]
*327 x5\[5\]
*328 x5\[6\]
*329 x5\[7\]
*330 x5\[8\]
*331 x5\[9\]
*332 mprj1
*333 mprj2
*334 mprj3
*335 mprj4
*336 mprj5
*337 ro1
*338 ro10
*339 ro11
*340 ro12
*341 ro13
*342 ro14
*343 ro15
*344 ro16
*345 ro2
*346 ro3
*347 ro4
*348 ro5
*349 ro6
*350 ro7
*351 ro8
*352 ro9

*PORTS
analog_io[0] I
analog_io[10] I
analog_io[11] I
analog_io[12] I
analog_io[13] I
analog_io[14] I
analog_io[15] I
analog_io[16] I
analog_io[17] I
analog_io[18] I
analog_io[19] I
analog_io[1] I
analog_io[20] I
analog_io[21] I
analog_io[22] I
analog_io[23] I
analog_io[24] I
analog_io[25] I
analog_io[26] I
analog_io[27] I
analog_io[28] I
analog_io[2] I
analog_io[3] I
analog_io[4] I
analog_io[5] I
analog_io[6] I
analog_io[7] I
analog_io[8] I
analog_io[9] I
io_in[0] I
io_in[10] I
io_in[11] I
io_in[12] I
io_in[13] I
io_in[14] I
io_in[15] I
io_in[16] I
io_in[17] I
io_in[18] I
io_in[19] I
io_in[1] I
io_in[20] I
io_in[21] I
io_in[22] I
io_in[23] I
io_in[24] I
io_in[25] I
io_in[26] I
io_in[27] I
io_in[28] I
io_in[29] I
io_in[2] I
io_in[30] I
io_in[31] I
io_in[32] I
io_in[33] I
io_in[34] I
io_in[35] I
io_in[36] I
io_in[37] I
io_in[3] I
io_in[4] I
io_in[5] I
io_in[6] I
io_in[7] I
io_in[8] I
io_in[9] I
io_oeb[0] O
io_oeb[10] O
io_oeb[11] O
io_oeb[12] O
io_oeb[13] O
io_oeb[14] O
io_oeb[15] O
io_oeb[16] O
io_oeb[17] O
io_oeb[18] O
io_oeb[19] O
io_oeb[1] O
io_oeb[20] O
io_oeb[21] O
io_oeb[22] O
io_oeb[23] O
io_oeb[24] O
io_oeb[25] O
io_oeb[26] O
io_oeb[27] O
io_oeb[28] O
io_oeb[29] O
io_oeb[2] O
io_oeb[30] O
io_oeb[31] O
io_oeb[32] O
io_oeb[33] O
io_oeb[34] O
io_oeb[35] O
io_oeb[36] O
io_oeb[37] O
io_oeb[3] O
io_oeb[4] O
io_oeb[5] O
io_oeb[6] O
io_oeb[7] O
io_oeb[8] O
io_oeb[9] O
io_out[0] O
io_out[10] O
io_out[11] O
io_out[12] O
io_out[13] O
io_out[14] O
io_out[15] O
io_out[16] O
io_out[17] O
io_out[18] O
io_out[19] O
io_out[1] O
io_out[20] O
io_out[21] O
io_out[22] O
io_out[23] O
io_out[24] O
io_out[25] O
io_out[26] O
io_out[27] O
io_out[28] O
io_out[29] O
io_out[2] O
io_out[30] O
io_out[31] O
io_out[32] O
io_out[33] O
io_out[34] O
io_out[35] O
io_out[36] O
io_out[37] O
io_out[3] O
io_out[4] O
io_out[5] O
io_out[6] O
io_out[7] O
io_out[8] O
io_out[9] O
wb_clk_i I
wb_rst_i I
wbs_ack_o O
wbs_adr_i[0] I
wbs_adr_i[10] I
wbs_adr_i[11] I
wbs_adr_i[12] I
wbs_adr_i[13] I
wbs_adr_i[14] I
wbs_adr_i[15] I
wbs_adr_i[16] I
wbs_adr_i[17] I
wbs_adr_i[18] I
wbs_adr_i[19] I
wbs_adr_i[1] I
wbs_adr_i[20] I
wbs_adr_i[21] I
wbs_adr_i[22] I
wbs_adr_i[23] I
wbs_adr_i[24] I
wbs_adr_i[25] I
wbs_adr_i[26] I
wbs_adr_i[27] I
wbs_adr_i[28] I
wbs_adr_i[29] I
wbs_adr_i[2] I
wbs_adr_i[30] I
wbs_adr_i[31] I
wbs_adr_i[3] I
wbs_adr_i[4] I
wbs_adr_i[5] I
wbs_adr_i[6] I
wbs_adr_i[7] I
wbs_adr_i[8] I
wbs_adr_i[9] I
wbs_cyc_i I
wbs_dat_i[0] I
wbs_dat_i[10] I
wbs_dat_i[11] I
wbs_dat_i[12] I
wbs_dat_i[13] I
wbs_dat_i[14] I
wbs_dat_i[15] I
wbs_dat_i[16] I
wbs_dat_i[17] I
wbs_dat_i[18] I
wbs_dat_i[19] I
wbs_dat_i[1] I
wbs_dat_i[20] I
wbs_dat_i[21] I
wbs_dat_i[22] I
wbs_dat_i[23] I
wbs_dat_i[24] I
wbs_dat_i[25] I
wbs_dat_i[26] I
wbs_dat_i[27] I
wbs_dat_i[28] I
wbs_dat_i[29] I
wbs_dat_i[2] I
wbs_dat_i[30] I
wbs_dat_i[31] I
wbs_dat_i[3] I
wbs_dat_i[4] I
wbs_dat_i[5] I
wbs_dat_i[6] I
wbs_dat_i[7] I
wbs_dat_i[8] I
wbs_dat_i[9] I
wbs_dat_o[0] O
wbs_dat_o[10] O
wbs_dat_o[11] O
wbs_dat_o[12] O
wbs_dat_o[13] O
wbs_dat_o[14] O
wbs_dat_o[15] O
wbs_dat_o[16] O
wbs_dat_o[17] O
wbs_dat_o[18] O
wbs_dat_o[19] O
wbs_dat_o[1] O
wbs_dat_o[20] O
wbs_dat_o[21] O
wbs_dat_o[22] O
wbs_dat_o[23] O
wbs_dat_o[24] O
wbs_dat_o[25] O
wbs_dat_o[26] O
wbs_dat_o[27] O
wbs_dat_o[28] O
wbs_dat_o[29] O
wbs_dat_o[2] O
wbs_dat_o[30] O
wbs_dat_o[31] O
wbs_dat_o[3] O
wbs_dat_o[4] O
wbs_dat_o[5] O
wbs_dat_o[6] O
wbs_dat_o[7] O
wbs_dat_o[8] O
wbs_dat_o[9] O
wbs_sel_i[0] I
wbs_sel_i[1] I
wbs_sel_i[2] I
wbs_sel_i[3] I
wbs_stb_i I
wbs_we_i I

*D_NET *30 0.30332
*CONN
*P io_in[0] I
*I *337:s1 I *D sky130_osu_ring_oscillator_mpr2aa_8_b0r1
*I *352:s1 I *D sky130_osu_ring_oscillator_mpr2aa_8_b0r2
*I *345:s1 I *D sky130_osu_ring_oscillator_mpr2at_8_b0r1
*I *346:s1 I *D sky130_osu_ring_oscillator_mpr2ca_8_b0r1
*I *347:s1 I *D sky130_osu_ring_oscillator_mpr2ct_8_b0r1
*I *348:s1 I *D sky130_osu_ring_oscillator_mpr2ea_8_b0r1
*I *349:s1 I *D sky130_osu_ring_oscillator_mpr2et_8_b0r1
*I *350:s1 I *D sky130_osu_ring_oscillator_mpr2xa_8_b0r1
*I *351:s1 I *D sky130_osu_ring_oscillator_mpr2ya_8_b0r1
*I *338:s1 I *D sky130_osu_ring_oscillator_mpr2at_8_b0r2
*I *339:s1 I *D sky130_osu_ring_oscillator_mpr2ca_8_b0r2
*I *340:s1 I *D sky130_osu_ring_oscillator_mpr2ct_8_b0r2
*I *341:s1 I *D sky130_osu_ring_oscillator_mpr2ea_8_b0r2
*I *342:s1 I *D sky130_osu_ring_oscillator_mpr2et_8_b0r2
*I *343:s1 I *D sky130_osu_ring_oscillator_mpr2xa_8_b0r2
*I *344:s1 I *D sky130_osu_ring_oscillator_mpr2ya_8_b0r2
*CAP
1 io_in[0] 0.000786352
2 *337:s1 0.000428225
3 *352:s1 0.000991382
4 *345:s1 0.00065151
5 *346:s1 0.00420045
6 *347:s1 0.000333467
7 *348:s1 0.000563582
8 *349:s1 0.000641873
9 *350:s1 0.0009629
10 *351:s1 0.000369948
11 *338:s1 0.000801141
12 *339:s1 0.00146646
13 *340:s1 0.000204603
14 *341:s1 0.000145637
15 *342:s1 0.000641663
16 *343:s1 0.000357766
17 *344:s1 0.000898735
18 *30:353 0.00333509
19 *30:351 0.00344095
20 *30:308 0.00416179
21 *30:306 0.00421348
22 *30:289 0.00530561
23 *30:265 0.00590224
24 *30:250 0.00919415
25 *30:235 0.0090858
26 *30:212 0.00970575
27 *30:193 0.00765737
28 *30:191 0.00622093
29 *30:168 0.0076734
30 *30:166 0.0048855
31 *30:133 0.00474942
32 *30:131 0.00400168
33 *30:115 0.00429673
34 *30:113 0.00442627
35 *30:94 0.00138445
36 *30:86 0.00537508
37 *30:71 0.00892119
38 *30:69 0.00475574
39 *30:52 0.00166704
40 *30:48 0.00250414
41 *30:23 0.00365381
42 *30:13 0.0314116
43 *30:11 0.0306697
44 *30:9 0.036179
45 *30:7 0.0369654
46 *338:s1 *338:s2 0.000859025
47 *338:s1 *41:205 0
48 *338:s1 *63:80 0.000661981
49 *339:s1 *63:61 0
50 *340:s1 *340:s2 0.00017236
51 *342:s1 *342:start 4.77769e-05
52 *343:s1 *63:224 2.49643e-05
53 *344:s1 *41:45 2.99518e-06
54 *344:s1 *63:226 0
55 *346:s1 *260:11 0
56 *347:s1 *347:start 1.34618e-05
57 *348:s1 *348:s2 0
58 *348:s1 *348:start 0
59 *349:s1 *349:start 4.77769e-05
60 *350:s1 *350:s2 7.73111e-05
61 *350:s1 *41:272 0.00131472
62 *350:s1 *52:285 0.000136962
63 *351:s1 *351:s2 0.000615333
64 *351:s1 *41:239 0.000234181
65 *352:s1 *352:s2 0
66 *352:s1 *63:92 1.57191e-05
67 *30:13 *344:s4 0
68 *30:13 *41:19 0
69 *30:13 *61:13 0
70 *30:13 *62:29 0.000652841
71 *30:23 *41:19 0
72 *30:23 *41:43 0.00148756
73 *30:48 *41:45 0.00201593
74 *30:48 *63:224 0
75 *30:48 *63:226 0
76 *30:52 *41:51 0.00118753
77 *30:52 *63:224 0
78 *30:69 *41:51 0.000680465
79 *30:69 *41:55 0.00021347
80 *30:71 *41:57 0
81 *30:86 *41:57 0
82 *30:86 *41:83 0
83 *30:94 *341:s2 0
84 *30:115 *254:15 0
85 *30:131 *340:s2 6.45446e-05
86 *30:133 *253:12 0
87 *30:166 *339:s2 0.000117214
88 *30:166 *41:164 0.000425044
89 *30:166 *63:68 0.000767269
90 *30:168 *41:164 0
91 *30:191 *41:164 0
92 *30:191 *41:205 0
93 *30:191 *41:207 0.00603658
94 *30:191 *63:80 0
95 *30:193 *41:207 0.000495594
96 *30:193 *41:235 0.00636022
97 *30:193 *63:92 0
98 *30:212 *41:249 0
99 *30:235 *41:274 0
100 *30:250 *41:274 0
101 *30:250 *41:300 0
102 *30:265 *41:300 0
103 *30:265 *41:331 0
104 *30:289 *347:s2 0
105 *30:289 *41:331 0
106 *30:308 *346:s2 0
107 *30:308 *259:12 0
108 *30:351 *345:start 0
109 *30:353 *337:start 0.000178079
110 *30:353 *41:380 0
111 *30:353 *41:402 0
112 *30:353 *63:194 0.00222409
*RES
1 io_in[0] *30:7 2.58747 
2 *30:7 *30:9 658.515 
3 *30:9 *30:11 0.5 
4 *30:11 *30:13 82.4562 
5 *30:13 *30:23 3.38673 
6 *30:23 *344:s1 16.8878 
7 *30:23 *30:48 52.32 
8 *30:48 *30:52 13.7475 
9 *30:52 *343:s1 9.80625 
10 *30:52 *30:69 10.297 
11 *30:69 *30:71 71.6325 
12 *30:71 *342:s1 14.9062 
13 *30:71 *30:86 79.0275 
14 *30:86 *30:94 3.00167 
15 *30:94 *341:s1 4.07127 
16 *30:94 *30:113 1.04087 
17 *30:113 *30:115 76.4775 
18 *30:115 *340:s1 4.07 
19 *340:s1 *30:131 4.55 
20 *30:131 *30:133 70.3575 
21 *30:133 *339:s1 11.2744 
22 *339:s1 *30:166 15.8604 
23 *30:166 *30:168 78.135 
24 *30:168 *338:s1 21.3454 
25 *30:168 *30:191 72.12 
26 *30:191 *30:193 76.8825 
27 *30:193 *351:s1 11.6488 
28 *30:193 *30:212 84.3825 
29 *30:212 *350:s1 16.9347 
30 *30:212 *30:235 74.6925 
31 *30:235 *349:s1 14.91 
32 *30:235 *30:250 78.9 
33 *30:250 *348:s1 13.2338 
34 *30:250 *30:265 78.135 
35 *30:265 *347:s1 7.715 
36 *30:265 *30:289 10.2064 
37 *30:289 *346:s1 73.275 
38 *346:s1 *30:306 1.45853 
39 *30:306 *30:308 73.545 
40 *30:308 *345:s1 2.2125 
41 *30:191 *352:s1 7.1558 
42 *345:s1 *30:351 13.0125 
43 *30:351 *30:353 69.465 
44 *30:353 *337:s1 10.9275 
*END

*D_NET *41 0.325048
*CONN
*P io_in[1] I
*I *343:s2 I *D sky130_osu_ring_oscillator_mpr2xa_8_b0r2
*I *351:s2 I *D sky130_osu_ring_oscillator_mpr2ya_8_b0r1
*I *337:s2 I *D sky130_osu_ring_oscillator_mpr2aa_8_b0r1
*I *345:s2 I *D sky130_osu_ring_oscillator_mpr2at_8_b0r1
*I *346:s2 I *D sky130_osu_ring_oscillator_mpr2ca_8_b0r1
*I *347:s2 I *D sky130_osu_ring_oscillator_mpr2ct_8_b0r1
*I *348:s2 I *D sky130_osu_ring_oscillator_mpr2ea_8_b0r1
*I *349:s2 I *D sky130_osu_ring_oscillator_mpr2et_8_b0r1
*I *350:s2 I *D sky130_osu_ring_oscillator_mpr2xa_8_b0r1
*I *352:s2 I *D sky130_osu_ring_oscillator_mpr2aa_8_b0r2
*I *338:s2 I *D sky130_osu_ring_oscillator_mpr2at_8_b0r2
*I *339:s2 I *D sky130_osu_ring_oscillator_mpr2ca_8_b0r2
*I *340:s2 I *D sky130_osu_ring_oscillator_mpr2ct_8_b0r2
*I *341:s2 I *D sky130_osu_ring_oscillator_mpr2ea_8_b0r2
*I *342:s2 I *D sky130_osu_ring_oscillator_mpr2et_8_b0r2
*I *344:s2 I *D sky130_osu_ring_oscillator_mpr2ya_8_b0r2
*CAP
1 io_in[1] 0.0291021
2 *343:s2 0.00209074
3 *351:s2 0.000931634
4 *337:s2 0.0018682
5 *345:s2 0.00207367
6 *346:s2 0.00170272
7 *347:s2 0.00197029
8 *348:s2 0.00145922
9 *349:s2 0.00229763
10 *350:s2 0.000973918
11 *352:s2 0.00207995
12 *338:s2 0.00150745
13 *339:s2 0.000960375
14 *340:s2 0.00103818
15 *341:s2 0.00198957
16 *342:s2 0.00221296
17 *344:s2 0.000571005
18 *41:402 0.00569089
19 *41:380 0.00732563
20 *41:378 0.00354341
21 *41:353 0.00735504
22 *41:331 0.00875798
23 *41:300 0.00788304
24 *41:274 0.00896506
25 *41:272 0.00401723
26 *41:251 0.00415175
27 *41:249 0.00353064
28 *41:239 0.00192368
29 *41:235 0.00256035
30 *41:207 0.00703655
31 *41:205 0.00291416
32 *41:164 0.00550365
33 *41:137 0.00794977
34 *41:115 0.00740111
35 *41:83 0.00819858
36 *41:57 0.00879941
37 *41:55 0.0037483
38 *41:51 0.00316039
39 *41:45 0.0026853
40 *41:43 0.00280311
41 *41:19 0.00361931
42 *41:13 0.0062961
43 *41:11 0.00405615
44 *41:9 0.0237316
45 *41:7 0.0237068
46 *41:5 0.0291021
47 *338:s2 *338:start 3.36659e-05
48 *338:s2 *63:80 7.71058e-05
49 *348:s2 *348:start 5.69036e-05
50 *348:s2 *63:146 5.31158e-06
51 *348:s2 *63:158 0.000370374
52 *350:s2 *350:start 2.65814e-06
53 *41:9 *52:9 0
54 *41:13 *52:9 0
55 *41:13 *62:29 0
56 *41:19 *344:s3 0
57 *41:19 *344:s4 0.000558889
58 *41:51 *343:start 0.000978368
59 *41:57 *63:19 0.00190967
60 *41:57 *63:31 0.000227382
61 *41:83 *63:31 0.00246312
62 *41:83 *63:43 0.000192034
63 *41:115 *63:43 0.00193928
64 *41:115 *63:47 0.000664255
65 *41:137 *63:47 0.000154461
66 *41:137 *63:59 0.000976287
67 *41:137 *63:61 0.00197808
68 *41:164 *63:61 2.05842e-05
69 *41:164 *63:68 0.00238529
70 *41:164 *63:80 3.13736e-05
71 *41:205 *63:80 0.000119482
72 *41:249 *52:275 2.56429e-05
73 *41:249 *63:96 7.64623e-05
74 *41:249 *63:112 0.000251754
75 *41:251 *52:277 0.00353527
76 *41:251 *63:114 0
77 *41:272 *52:277 0.000251059
78 *41:272 *63:132 0
79 *41:274 *63:134 0.00239056
80 *41:274 *63:146 0.000279842
81 *41:300 *63:146 0.00237208
82 *41:300 *63:158 3.20476e-05
83 *41:331 *63:158 0.00241066
84 *41:331 *63:170 0.000241942
85 *41:353 *63:170 0.00250683
86 *41:353 *63:182 0.000326112
87 *41:378 *63:182 0.00159674
88 *41:380 *63:182 0
89 *338:s1 *338:s2 0.000859025
90 *338:s1 *41:205 0
91 *340:s1 *340:s2 0.00017236
92 *344:s1 *41:45 2.99518e-06
93 *348:s1 *348:s2 0
94 *350:s1 *350:s2 7.73111e-05
95 *350:s1 *41:272 0.00131472
96 *351:s1 *351:s2 0.000615333
97 *351:s1 *41:239 0.000234181
98 *352:s1 *352:s2 0
99 *30:13 *41:19 0
100 *30:23 *41:19 0
101 *30:23 *41:43 0.00148756
102 *30:48 *41:45 0.00201593
103 *30:52 *41:51 0.00118753
104 *30:69 *41:51 0.000680465
105 *30:69 *41:55 0.00021347
106 *30:71 *41:57 0
107 *30:86 *41:57 0
108 *30:86 *41:83 0
109 *30:94 *341:s2 0
110 *30:131 *340:s2 6.45446e-05
111 *30:166 *339:s2 0.000117214
112 *30:166 *41:164 0.000425044
113 *30:168 *41:164 0
114 *30:191 *41:164 0
115 *30:191 *41:205 0
116 *30:191 *41:207 0.00603658
117 *30:193 *41:207 0.000495594
118 *30:193 *41:235 0.00636022
119 *30:212 *41:249 0
120 *30:235 *41:274 0
121 *30:250 *41:274 0
122 *30:250 *41:300 0
123 *30:265 *41:300 0
124 *30:265 *41:331 0
125 *30:289 *347:s2 0
126 *30:289 *41:331 0
127 *30:308 *346:s2 0
128 *30:353 *41:380 0
129 *30:353 *41:402 0
*RES
1 io_in[1] *41:5 78.0672 
2 *41:5 *41:7 0.5 
3 *41:7 *41:9 431.925 
4 *41:9 *41:11 0.45 
5 *41:11 *41:13 72.675 
6 *41:13 *41:19 7.6804 
7 *41:19 *344:s2 9.92902 
8 *41:19 *41:43 7.88887 
9 *41:43 *41:45 52.32 
10 *41:45 *41:51 24.32 
11 *41:51 *41:55 1.87813 
12 *41:55 *41:57 75.585 
13 *41:57 *342:s2 13.6566 
14 *41:57 *41:83 77.625 
15 *41:83 *341:s2 13.7861 
16 *41:83 *41:115 70.1025 
17 *41:115 *340:s2 25.0613 
18 *41:115 *41:137 80.685 
19 *41:137 *339:s2 20.03 
20 *41:137 *41:164 88.2075 
21 *41:164 *338:s2 39.9959 
22 *41:164 *41:205 5.63087 
23 *41:205 *41:207 73.035 
24 *41:207 *352:s2 13.0123 
25 *41:207 *41:235 71.1225 
26 *41:235 *41:239 4.52 
27 *41:239 *41:249 13.0256 
28 *41:249 *41:251 70.6125 
29 *41:251 *350:s2 23.8275 
30 *41:251 *41:272 8.47563 
31 *41:272 *41:274 82.215 
32 *41:274 *349:s2 14.745 
33 *41:274 *41:300 77.625 
34 *41:300 *348:s2 35.1545 
35 *41:300 *41:331 77.625 
36 *41:331 *347:s2 12.1073 
37 *41:331 *41:353 82.725 
38 *41:353 *346:s2 14.1412 
39 *41:353 *41:378 48.795 
40 *41:378 *41:380 26.01 
41 *41:380 *345:s2 9.46418 
42 *41:380 *41:402 69.465 
43 *41:402 *337:s2 8.85305 
44 *41:239 *351:s2 19.2188 
45 *41:51 *343:s2 16.2123 
*END

*D_NET *52 0.351817
*CONN
*P io_in[2] I
*I *351:s3 I *D sky130_osu_ring_oscillator_mpr2ya_8_b0r1
*I *337:s3 I *D sky130_osu_ring_oscillator_mpr2aa_8_b0r1
*I *345:s3 I *D sky130_osu_ring_oscillator_mpr2at_8_b0r1
*I *346:s3 I *D sky130_osu_ring_oscillator_mpr2ca_8_b0r1
*I *347:s3 I *D sky130_osu_ring_oscillator_mpr2ct_8_b0r1
*I *348:s3 I *D sky130_osu_ring_oscillator_mpr2ea_8_b0r1
*I *349:s3 I *D sky130_osu_ring_oscillator_mpr2et_8_b0r1
*I *350:s3 I *D sky130_osu_ring_oscillator_mpr2xa_8_b0r1
*I *352:s3 I *D sky130_osu_ring_oscillator_mpr2aa_8_b0r2
*I *338:s3 I *D sky130_osu_ring_oscillator_mpr2at_8_b0r2
*I *339:s3 I *D sky130_osu_ring_oscillator_mpr2ca_8_b0r2
*I *340:s3 I *D sky130_osu_ring_oscillator_mpr2ct_8_b0r2
*I *341:s3 I *D sky130_osu_ring_oscillator_mpr2ea_8_b0r2
*I *342:s3 I *D sky130_osu_ring_oscillator_mpr2et_8_b0r2
*I *343:s3 I *D sky130_osu_ring_oscillator_mpr2xa_8_b0r2
*I *344:s3 I *D sky130_osu_ring_oscillator_mpr2ya_8_b0r2
*CAP
1 io_in[2] 0.0310271
2 *351:s3 2.68426e-05
3 *337:s3 0.00220848
4 *345:s3 0.00173134
5 *346:s3 0.002639
6 *347:s3 0.00233801
7 *348:s3 0.00253002
8 *349:s3 0.00212018
9 *350:s3 0.000452896
10 *352:s3 0.00226668
11 *338:s3 0.00193705
12 *339:s3 0.00238111
13 *340:s3 0.00236218
14 *341:s3 0.0025334
15 *342:s3 0.00232416
16 *343:s3 0.00243988
17 *344:s3 0.00209331
18 *52:465 0.00508039
19 *52:433 0.00556811
20 *52:421 0.00335029
21 *52:419 0.00253517
22 *52:396 0.00278873
23 *52:394 0.00300575
24 *52:373 0.00538573
25 *52:369 0.00255938
26 *52:343 0.00903682
27 *52:341 0.00398939
28 *52:313 0.00236594
29 *52:309 0.00260413
30 *52:307 0.00448102
31 *52:285 0.00465287
32 *52:277 0.00477718
33 *52:275 0.00517331
34 *52:251 0.00404595
35 *52:243 0.00311432
36 *52:217 0.00403473
37 *52:209 0.00282981
38 *52:189 0.00509861
39 *52:183 0.00345729
40 *52:181 0.00337209
41 *52:158 0.00404108
42 *52:154 0.00293068
43 *52:127 0.00585886
44 *52:121 0.00318075
45 *52:93 0.00760797
46 *52:91 0.00367387
47 *52:67 0.00261972
48 *52:63 0.00413984
49 *52:61 0.00421647
50 *52:33 0.00281207
51 *52:31 0.00314413
52 *52:29 0.00349816
53 *52:11 0.00244734
54 *52:9 0.0191771
55 *52:7 0.0191771
56 *52:5 0.0310271
57 *337:s3 *337:s4 0.000912888
58 *338:s3 *61:230 0.000466487
59 *342:s3 *61:109 8.78837e-05
60 *344:s3 *344:s4 1.19179e-05
61 *345:s3 *62:348 0
62 *345:s3 *62:364 5.89846e-05
63 *345:s3 *62:366 0
64 *346:s3 *62:334 0
65 *347:s3 *61:411 0
66 *349:s3 *349:s4 0.00102182
67 *349:s3 *61:321 0.000439359
68 *349:s3 *310:13 0
69 *52:9 *62:29 0.000192647
70 *52:31 *61:39 0.00574639
71 *52:31 *62:31 3.85591e-05
72 *52:31 *62:46 0.00114969
73 *52:63 *61:109 0.00132278
74 *52:63 *258:13 0
75 *52:63 *320:20 1.87784e-05
76 *52:67 *61:109 0.000121793
77 *52:93 *61:131 0.000346907
78 *52:93 *61:133 9.9514e-05
79 *52:93 *62:80 0.00121562
80 *52:93 *62:86 0
81 *52:93 *303:11 0
82 *52:121 *61:133 0.00359317
83 *52:121 *303:11 0
84 *52:121 *329:17 0
85 *52:121 *330:13 0
86 *52:127 *61:133 0.00144609
87 *52:127 *61:165 0.0011161
88 *52:127 *329:17 0
89 *52:154 *61:167 0.00239594
90 *52:158 *61:167 0.000381612
91 *52:158 *62:148 0.000810075
92 *52:158 *301:19 0.000589506
93 *52:158 *317:15 7.49811e-05
94 *52:181 *62:148 0.000647428
95 *52:183 *258:13 0
96 *52:183 *316:18 0.00403571
97 *52:189 *314:17 0.00048944
98 *52:209 *61:230 0.00651468
99 *52:209 *62:206 0.000630483
100 *52:209 *298:15 0
101 *52:217 *61:240 0
102 *52:217 *62:206 7.85482e-05
103 *52:243 *62:206 0.000520574
104 *52:243 *62:208 0.00461967
105 *52:243 *296:14 0.00175541
106 *52:251 *351:s5 0.000467862
107 *52:251 *62:208 8.44644e-05
108 *52:251 *62:228 1.0397e-05
109 *52:251 *296:14 9.00631e-05
110 *52:251 *329:15 2.02291e-05
111 *52:277 *63:114 0
112 *52:277 *63:132 0
113 *52:309 *61:321 0.00324119
114 *52:309 *258:13 0
115 *52:309 *316:18 0.00426847
116 *52:309 *327:15 7.29136e-05
117 *52:313 *61:321 0.000602128
118 *52:313 *310:13 0
119 *52:343 *62:276 0
120 *52:343 *62:280 0.000261241
121 *52:343 *62:294 0.000736778
122 *52:369 *61:385 0.000126425
123 *52:369 *61:411 0.00034288
124 *52:369 *62:294 0.00602887
125 *52:369 *62:314 0.00082709
126 *52:369 *325:15 2.13615e-05
127 *52:373 *61:411 7.50766e-05
128 *52:373 *62:314 3.66658e-05
129 *52:394 *61:411 0.000374168
130 *52:394 *62:314 0.00356436
131 *52:394 *62:334 0.00071571
132 *52:419 *62:334 0
133 *52:421 *62:334 0
134 *52:421 *62:336 0.00295151
135 *52:421 *316:18 0
136 *52:433 *62:336 0.000195566
137 *52:433 *62:348 1.87784e-05
138 *52:433 *62:364 1.7062e-05
139 *52:433 *316:18 0
140 *52:433 *323:15 1.52081e-05
141 *52:465 *61:495 0.00347921
142 *52:465 *62:366 0
143 *350:s1 *52:285 0.000136962
144 *41:9 *52:9 0
145 *41:13 *52:9 0
146 *41:19 *344:s3 0
147 *41:249 *52:275 2.56429e-05
148 *41:251 *52:277 0.00353527
149 *41:272 *52:277 0.000251059
*RES
1 io_in[2] *52:5 77.7176 
2 *52:5 *52:7 0.5 
3 *52:7 *52:9 349.965 
4 *52:9 *52:11 0.5 
5 *52:11 *344:s3 6.9818 
6 *52:11 *52:29 1.47027 
7 *52:29 *52:31 85.275 
8 *52:31 *52:33 0.5 
9 *52:33 *343:s3 16.9761 
10 *52:33 *52:61 1.412 
11 *52:61 *52:63 77.625 
12 *52:63 *52:67 1.35373 
13 *52:67 *342:s3 15.2548 
14 *52:67 *52:91 0.5 
15 *52:91 *52:93 76.605 
16 *52:93 *341:s3 14.1384 
17 *52:93 *52:121 40.62 
18 *52:121 *52:127 43.2124 
19 *52:127 *340:s3 18.4718 
20 *52:127 *52:154 46.985 
21 *52:154 *52:158 32.195 
22 *52:158 *339:s3 14.4977 
23 *52:158 *52:181 1.87813 
24 *52:181 *52:183 78.135 
25 *52:183 *52:189 2.786 
26 *52:189 *338:s3 11.714 
27 *52:189 *52:209 77.115 
28 *52:209 *52:217 3.41607 
29 *52:217 *352:s3 15.1283 
30 *52:217 *52:243 65.01 
31 *52:243 *52:251 31.9475 
32 *52:251 *52:275 21.8118 
33 *52:275 *52:277 73.035 
34 *52:277 *52:285 6.49387 
35 *52:285 *350:s3 7.8489 
36 *52:285 *52:307 6.07333 
37 *52:307 *52:309 83.235 
38 *52:309 *52:313 1.412 
39 *52:313 *349:s3 16.9516 
40 *52:313 *52:341 0.5 
41 *52:341 *52:343 76.095 
42 *52:343 *348:s3 15.0133 
43 *52:343 *52:369 76.875 
44 *52:369 *52:373 1.305 
45 *52:373 *347:s3 12.684 
46 *52:373 *52:394 82.725 
47 *52:394 *52:396 0.5 
48 *52:396 *346:s3 16.5192 
49 *52:396 *52:419 0.8876 
50 *52:419 *52:421 61.635 
51 *52:421 *52:433 13.5301 
52 *52:433 *345:s3 29.8017 
53 *52:433 *52:465 73.545 
54 *52:465 *337:s3 14.7599 
55 *52:251 *351:s3 0.48 
*END

*D_NET *61 0.291992
*CONN
*P io_in[3] I
*I *352:s4 I *D sky130_osu_ring_oscillator_mpr2aa_8_b0r2
*I *337:s4 I *D sky130_osu_ring_oscillator_mpr2aa_8_b0r1
*I *345:s4 I *D sky130_osu_ring_oscillator_mpr2at_8_b0r1
*I *346:s4 I *D sky130_osu_ring_oscillator_mpr2ca_8_b0r1
*I *347:s4 I *D sky130_osu_ring_oscillator_mpr2ct_8_b0r1
*I *348:s4 I *D sky130_osu_ring_oscillator_mpr2ea_8_b0r1
*I *349:s4 I *D sky130_osu_ring_oscillator_mpr2et_8_b0r1
*I *350:s4 I *D sky130_osu_ring_oscillator_mpr2xa_8_b0r1
*I *351:s4 I *D sky130_osu_ring_oscillator_mpr2ya_8_b0r1
*I *338:s4 I *D sky130_osu_ring_oscillator_mpr2at_8_b0r2
*I *339:s4 I *D sky130_osu_ring_oscillator_mpr2ca_8_b0r2
*I *340:s4 I *D sky130_osu_ring_oscillator_mpr2ct_8_b0r2
*I *341:s4 I *D sky130_osu_ring_oscillator_mpr2ea_8_b0r2
*I *342:s4 I *D sky130_osu_ring_oscillator_mpr2et_8_b0r2
*I *343:s4 I *D sky130_osu_ring_oscillator_mpr2xa_8_b0r2
*I *344:s4 I *D sky130_osu_ring_oscillator_mpr2ya_8_b0r2
*CAP
1 io_in[3] 0.0216752
2 *352:s4 0.000209763
3 *337:s4 0.00134055
4 *345:s4 0.00206914
5 *346:s4 0.00117325
6 *347:s4 0.00105307
7 *348:s4 0.00164831
8 *349:s4 0.00109908
9 *350:s4 0.00124206
10 *351:s4 0.00252458
11 *338:s4 0.000519838
12 *339:s4 0.000365988
13 *340:s4 0.00101821
14 *341:s4 0.000891076
15 *342:s4 0.000937957
16 *343:s4 0.0002393
17 *344:s4 0.0019137
18 *61:495 0.00384214
19 *61:493 0.0036953
20 *61:449 0.00477947
21 *61:447 0.00420725
22 *61:413 0.00443173
23 *61:411 0.00429631
24 *61:400 3.60607e-06
25 *61:385 0.00406721
26 *61:379 0.00488228
27 *61:375 0.00309155
28 *61:351 0.00451312
29 *61:349 0.00335722
30 *61:321 0.00421277
31 *61:309 0.00593669
32 *61:307 0.0030605
33 *61:281 0.00354643
34 *61:279 0.00485308
35 *61:246 0.004183
36 *61:244 0.00398188
37 *61:240 0.00144718
38 *61:230 0.00400935
39 *61:228 0.00322894
40 *61:204 0.00385878
41 *61:190 0.00576859
42 *61:173 0.00445922
43 *61:167 0.00251141
44 *61:165 0.00192521
45 *61:148 0
46 *61:133 0.00413415
47 *61:131 0.00291221
48 *61:113 0.00131997
49 *61:111 0.00282077
50 *61:109 0.00552353
51 *61:83 0.00364072
52 *61:81 0.00326689
53 *61:79 0.0035712
54 *61:51 0.00154804
55 *61:39 0.00198514
56 *61:37 0.00098071
57 *61:13 0.00891305
58 *61:9 0.0184304
59 *61:7 0.011431
60 *61:5 0.0216752
61 *341:s4 *341:s5 0.000464726
62 *341:s4 *303:9 0
63 *344:s4 *62:29 0.000145902
64 *345:s4 *307:12 0
65 *346:s4 *346:s5 0.000192122
66 *347:s4 *347:s5 0
67 *348:s4 *262:9 0.000334549
68 *348:s4 *310:7 0
69 *350:s4 *350:s5 0
70 *61:13 *62:29 1.59742e-05
71 *61:39 *62:31 0.00551941
72 *61:51 *305:16 0
73 *61:109 *258:13 0
74 *61:109 *320:20 1.79483e-05
75 *61:111 *62:80 0
76 *61:111 *62:86 0.00269018
77 *61:131 *341:s5 4.66108e-05
78 *61:131 *62:100 0
79 *61:131 *303:9 0
80 *61:133 *62:100 0
81 *61:165 *62:128 0
82 *61:167 *62:128 0.00611934
83 *61:167 *301:19 0.00140239
84 *61:204 *338:s5 0
85 *61:204 *329:17 0
86 *61:204 *331:13 2.28565e-05
87 *61:228 *62:180 4.2011e-05
88 *61:230 *62:180 0
89 *61:230 *62:184 0
90 *61:230 *62:190 0
91 *61:246 *313:12 0
92 *61:281 *62:230 0.00338557
93 *61:281 *62:248 2.28638e-05
94 *61:281 *62:250 6.66128e-05
95 *61:281 *295:14 0
96 *61:321 *258:13 0
97 *61:321 *316:18 1.4548e-05
98 *61:385 *62:294 0.00238052
99 *61:413 *62:314 0
100 *61:495 *316:16 5.86183e-05
101 *337:s3 *337:s4 0.000912888
102 *338:s3 *61:230 0.000466487
103 *342:s3 *61:109 8.78837e-05
104 *344:s3 *344:s4 1.19179e-05
105 *347:s3 *61:411 0
106 *349:s3 *349:s4 0.00102182
107 *349:s3 *61:321 0.000439359
108 *30:13 *344:s4 0
109 *30:13 *61:13 0
110 *41:19 *344:s4 0.000558889
111 *52:31 *61:39 0.00574639
112 *52:63 *61:109 0.00132278
113 *52:67 *61:109 0.000121793
114 *52:93 *61:131 0.000346907
115 *52:93 *61:133 9.9514e-05
116 *52:121 *61:133 0.00359317
117 *52:127 *61:133 0.00144609
118 *52:127 *61:165 0.0011161
119 *52:154 *61:167 0.00239594
120 *52:158 *61:167 0.000381612
121 *52:209 *61:230 0.00651468
122 *52:217 *61:240 0
123 *52:309 *61:321 0.00324119
124 *52:313 *61:321 0.000602128
125 *52:369 *61:385 0.000126425
126 *52:369 *61:411 0.00034288
127 *52:373 *61:411 7.50766e-05
128 *52:394 *61:411 0.000374168
129 *52:465 *61:495 0.00347921
*RES
1 io_in[3] *61:5 58.0235 
2 *61:5 *61:7 0.5 
3 *61:7 *61:9 207.675 
4 *61:9 *61:13 19.2416 
5 *61:13 *344:s4 15.6155 
6 *61:13 *61:37 0.5 
7 *61:37 *61:39 64.4925 
8 *61:39 *61:51 22.5675 
9 *61:51 *343:s4 2.84972 
10 *61:51 *61:79 4.3324 