*SPEF "ieee 1481-1999"
*DESIGN "user_project_wrapper"
*DATE "11:11:11 Fri 11 11, 1111"
*VENDOR "OpenRCX"
*PROGRAM "Parallel Extraction"
*VERSION "1.0"
*DESIGN_FLOW "NAME_SCOPE LOCAL" "PIN_CAP NONE"
*DIVIDER /
*DELIMITER :
*BUS_DELIMITER []
*T_UNIT 1 NS
*C_UNIT 1 PF
*R_UNIT 1 OHM
*L_UNIT 1 HENRY

*NAME_MAP
*1 analog_io[0]
*2 analog_io[10]
*3 analog_io[11]
*4 analog_io[12]
*5 analog_io[13]
*6 analog_io[14]
*7 analog_io[15]
*8 analog_io[16]
*9 analog_io[17]
*10 analog_io[18]
*11 analog_io[19]
*12 analog_io[1]
*13 analog_io[20]
*14 analog_io[21]
*15 analog_io[22]
*16 analog_io[23]
*17 analog_io[24]
*18 analog_io[25]
*19 analog_io[26]
*20 analog_io[27]
*21 analog_io[28]
*22 analog_io[2]
*23 analog_io[3]
*24 analog_io[4]
*25 analog_io[5]
*26 analog_io[6]
*27 analog_io[7]
*28 analog_io[8]
*29 analog_io[9]
*30 io_in[0]
*31 io_in[10]
*32 io_in[11]
*33 io_in[12]
*34 io_in[13]
*35 io_in[14]
*36 io_in[15]
*37 io_in[16]
*38 io_in[17]
*39 io_in[18]
*40 io_in[19]
*41 io_in[1]
*42 io_in[20]
*43 io_in[21]
*44 io_in[22]
*45 io_in[23]
*46 io_in[24]
*47 io_in[25]
*48 io_in[26]
*49 io_in[27]
*50 io_in[28]
*51 io_in[29]
*52 io_in[2]
*53 io_in[30]
*54 io_in[31]
*55 io_in[32]
*56 io_in[33]
*57 io_in[34]
*58 io_in[35]
*59 io_in[36]
*60 io_in[37]
*61 io_in[3]
*62 io_in[4]
*63 io_in[5]
*64 io_in[6]
*65 io_in[7]
*66 io_in[8]
*67 io_in[9]
*68 io_oeb[0]
*69 io_oeb[10]
*70 io_oeb[11]
*71 io_oeb[12]
*72 io_oeb[13]
*73 io_oeb[14]
*74 io_oeb[15]
*75 io_oeb[16]
*76 io_oeb[17]
*77 io_oeb[18]
*78 io_oeb[19]
*79 io_oeb[1]
*80 io_oeb[20]
*81 io_oeb[21]
*82 io_oeb[22]
*83 io_oeb[23]
*84 io_oeb[24]
*85 io_oeb[25]
*86 io_oeb[26]
*87 io_oeb[27]
*88 io_oeb[28]
*89 io_oeb[29]
*90 io_oeb[2]
*91 io_oeb[30]
*92 io_oeb[31]
*93 io_oeb[32]
*94 io_oeb[33]
*95 io_oeb[34]
*96 io_oeb[35]
*97 io_oeb[36]
*98 io_oeb[37]
*99 io_oeb[3]
*100 io_oeb[4]
*101 io_oeb[5]
*102 io_oeb[6]
*103 io_oeb[7]
*104 io_oeb[8]
*105 io_oeb[9]
*106 io_out[0]
*107 io_out[10]
*108 io_out[11]
*109 io_out[12]
*110 io_out[13]
*111 io_out[14]
*112 io_out[15]
*113 io_out[16]
*114 io_out[17]
*115 io_out[18]
*116 io_out[19]
*117 io_out[1]
*118 io_out[20]
*119 io_out[21]
*120 io_out[22]
*121 io_out[23]
*122 io_out[24]
*123 io_out[25]
*124 io_out[26]
*125 io_out[27]
*126 io_out[28]
*127 io_out[29]
*128 io_out[2]
*129 io_out[30]
*130 io_out[31]
*131 io_out[32]
*132 io_out[33]
*133 io_out[34]
*134 io_out[35]
*135 io_out[36]
*136 io_out[37]
*137 io_out[3]
*138 io_out[4]
*139 io_out[5]
*140 io_out[6]
*141 io_out[7]
*142 io_out[8]
*143 io_out[9]
*146 wb_clk_i
*147 wb_rst_i
*148 wbs_ack_o
*149 wbs_adr_i[0]
*150 wbs_adr_i[10]
*151 wbs_adr_i[11]
*152 wbs_adr_i[12]
*153 wbs_adr_i[13]
*154 wbs_adr_i[14]
*155 wbs_adr_i[15]
*156 wbs_adr_i[16]
*157 wbs_adr_i[17]
*158 wbs_adr_i[18]
*159 wbs_adr_i[19]
*160 wbs_adr_i[1]
*161 wbs_adr_i[20]
*162 wbs_adr_i[21]
*163 wbs_adr_i[22]
*164 wbs_adr_i[23]
*165 wbs_adr_i[24]
*166 wbs_adr_i[25]
*167 wbs_adr_i[26]
*168 wbs_adr_i[27]
*169 wbs_adr_i[28]
*170 wbs_adr_i[29]
*171 wbs_adr_i[2]
*172 wbs_adr_i[30]
*173 wbs_adr_i[31]
*174 wbs_adr_i[3]
*175 wbs_adr_i[4]
*176 wbs_adr_i[5]
*177 wbs_adr_i[6]
*178 wbs_adr_i[7]
*179 wbs_adr_i[8]
*180 wbs_adr_i[9]
*181 wbs_cyc_i
*182 wbs_dat_i[0]
*183 wbs_dat_i[10]
*184 wbs_dat_i[11]
*185 wbs_dat_i[12]
*186 wbs_dat_i[13]
*187 wbs_dat_i[14]
*188 wbs_dat_i[15]
*189 wbs_dat_i[16]
*190 wbs_dat_i[17]
*191 wbs_dat_i[18]
*192 wbs_dat_i[19]
*193 wbs_dat_i[1]
*194 wbs_dat_i[20]
*195 wbs_dat_i[21]
*196 wbs_dat_i[22]
*197 wbs_dat_i[23]
*198 wbs_dat_i[24]
*199 wbs_dat_i[25]
*200 wbs_dat_i[26]
*201 wbs_dat_i[27]
*202 wbs_dat_i[28]
*203 wbs_dat_i[29]
*204 wbs_dat_i[2]
*205 wbs_dat_i[30]
*206 wbs_dat_i[31]
*207 wbs_dat_i[3]
*208 wbs_dat_i[4]
*209 wbs_dat_i[5]
*210 wbs_dat_i[6]
*211 wbs_dat_i[7]
*212 wbs_dat_i[8]
*213 wbs_dat_i[9]
*214 wbs_dat_o[0]
*215 wbs_dat_o[10]
*216 wbs_dat_o[11]
*217 wbs_dat_o[12]
*218 wbs_dat_o[13]
*219 wbs_dat_o[14]
*220 wbs_dat_o[15]
*221 wbs_dat_o[16]
*222 wbs_dat_o[17]
*223 wbs_dat_o[18]
*224 wbs_dat_o[19]
*225 wbs_dat_o[1]
*226 wbs_dat_o[20]
*227 wbs_dat_o[21]
*228 wbs_dat_o[22]
*229 wbs_dat_o[23]
*230 wbs_dat_o[24]
*231 wbs_dat_o[25]
*232 wbs_dat_o[26]
*233 wbs_dat_o[27]
*234 wbs_dat_o[28]
*235 wbs_dat_o[29]
*236 wbs_dat_o[2]
*237 wbs_dat_o[30]
*238 wbs_dat_o[31]
*239 wbs_dat_o[3]
*240 wbs_dat_o[4]
*241 wbs_dat_o[5]
*242 wbs_dat_o[6]
*243 wbs_dat_o[7]
*244 wbs_dat_o[8]
*245 wbs_dat_o[9]
*246 wbs_sel_i[0]
*247 wbs_sel_i[1]
*248 wbs_sel_i[2]
*249 wbs_sel_i[3]
*250 wbs_stb_i
*251 wbs_we_i
*252 x1\[0\]
*253 x1\[10\]
*254 x1\[11\]
*255 x1\[12\]
*256 x1\[13\]
*257 x1\[14\]
*258 x1\[15\]
*259 x1\[1\]
*260 x1\[2\]
*261 x1\[3\]
*262 x1\[4\]
*263 x1\[5\]
*264 x1\[6\]
*265 x1\[7\]
*266 x1\[8\]
*267 x1\[9\]
*268 x2\[0\]
*269 x2\[10\]
*270 x2\[11\]
*271 x2\[12\]
*272 x2\[13\]
*273 x2\[14\]
*274 x2\[15\]
*275 x2\[1\]
*276 x2\[2\]
*277 x2\[3\]
*278 x2\[4\]
*279 x2\[5\]
*280 x2\[6\]
*281 x2\[7\]
*282 x2\[8\]
*283 x2\[9\]
*284 x3\[0\]
*285 x3\[10\]
*286 x3\[11\]
*287 x3\[12\]
*288 x3\[13\]
*289 x3\[14\]
*290 x3\[15\]
*291 x3\[1\]
*292 x3\[2\]
*293 x3\[3\]
*294 x3\[4\]
*295 x3\[5\]
*296 x3\[6\]
*297 x3\[7\]
*298 x3\[8\]
*299 x3\[9\]
*300 x4\[0\]
*301 x4\[10\]
*302 x4\[11\]
*303 x4\[12\]
*304 x4\[13\]
*305 x4\[14\]
*306 x4\[15\]
*307 x4\[1\]
*308 x4\[2\]
*309 x4\[3\]
*310 x4\[4\]
*311 x4\[5\]
*312 x4\[6\]
*313 x4\[7\]
*314 x4\[8\]
*315 x4\[9\]
*316 x5\[0\]
*317 x5\[10\]
*318 x5\[11\]
*319 x5\[12\]
*320 x5\[13\]
*321 x5\[14\]
*322 x5\[15\]
*323 x5\[1\]
*324 x5\[2\]
*325 x5\[3\]
*326 x5\[4\]
*327 x5\[5\]
*328 x5\[6\]
*329 x5\[7\]
*330 x5\[8\]
*331 x5\[9\]
*332 mprj1
*333 mprj2
*334 mprj3
*335 mprj4
*336 mprj5
*337 ro11
*338 ro12
*339 ro13
*340 ro14
*341 ro15
*342 ro3
*343 ro4
*344 ro5
*345 ro6
*346 ro7

*PORTS
analog_io[0] I
analog_io[10] I
analog_io[11] I
analog_io[12] I
analog_io[13] I
analog_io[14] I
analog_io[15] I
analog_io[16] I
analog_io[17] I
analog_io[18] I
analog_io[19] I
analog_io[1] I
analog_io[20] I
analog_io[21] I
analog_io[22] I
analog_io[23] I
analog_io[24] I
analog_io[25] I
analog_io[26] I
analog_io[27] I
analog_io[28] I
analog_io[2] I
analog_io[3] I
analog_io[4] I
analog_io[5] I
analog_io[6] I
analog_io[7] I
analog_io[8] I
analog_io[9] I
io_in[0] I
io_in[10] I
io_in[11] I
io_in[12] I
io_in[13] I
io_in[14] I
io_in[15] I
io_in[16] I
io_in[17] I
io_in[18] I
io_in[19] I
io_in[1] I
io_in[20] I
io_in[21] I
io_in[22] I
io_in[23] I
io_in[24] I
io_in[25] I
io_in[26] I
io_in[27] I
io_in[28] I
io_in[29] I
io_in[2] I
io_in[30] I
io_in[31] I
io_in[32] I
io_in[33] I
io_in[34] I
io_in[35] I
io_in[36] I
io_in[37] I
io_in[3] I
io_in[4] I
io_in[5] I
io_in[6] I
io_in[7] I
io_in[8] I
io_in[9] I
io_oeb[0] O
io_oeb[10] O
io_oeb[11] O
io_oeb[12] O
io_oeb[13] O
io_oeb[14] O
io_oeb[15] O
io_oeb[16] O
io_oeb[17] O
io_oeb[18] O
io_oeb[19] O
io_oeb[1] O
io_oeb[20] O
io_oeb[21] O
io_oeb[22] O
io_oeb[23] O
io_oeb[24] O
io_oeb[25] O
io_oeb[26] O
io_oeb[27] O
io_oeb[28] O
io_oeb[29] O
io_oeb[2] O
io_oeb[30] O
io_oeb[31] O
io_oeb[32] O
io_oeb[33] O
io_oeb[34] O
io_oeb[35] O
io_oeb[36] O
io_oeb[37] O
io_oeb[3] O
io_oeb[4] O
io_oeb[5] O
io_oeb[6] O
io_oeb[7] O
io_oeb[8] O
io_oeb[9] O
io_out[0] O
io_out[10] O
io_out[11] O
io_out[12] O
io_out[13] O
io_out[14] O
io_out[15] O
io_out[16] O
io_out[17] O
io_out[18] O
io_out[19] O
io_out[1] O
io_out[20] O
io_out[21] O
io_out[22] O
io_out[23] O
io_out[24] O
io_out[25] O
io_out[26] O
io_out[27] O
io_out[28] O
io_out[29] O
io_out[2] O
io_out[30] O
io_out[31] O
io_out[32] O
io_out[33] O
io_out[34] O
io_out[35] O
io_out[36] O
io_out[37] O
io_out[3] O
io_out[4] O
io_out[5] O
io_out[6] O
io_out[7] O
io_out[8] O
io_out[9] O
wb_clk_i I
wb_rst_i I
wbs_ack_o O
wbs_adr_i[0] I
wbs_adr_i[10] I
wbs_adr_i[11] I
wbs_adr_i[12] I
wbs_adr_i[13] I
wbs_adr_i[14] I
wbs_adr_i[15] I
wbs_adr_i[16] I
wbs_adr_i[17] I
wbs_adr_i[18] I
wbs_adr_i[19] I
wbs_adr_i[1] I
wbs_adr_i[20] I
wbs_adr_i[21] I
wbs_adr_i[22] I
wbs_adr_i[23] I
wbs_adr_i[24] I
wbs_adr_i[25] I
wbs_adr_i[26] I
wbs_adr_i[27] I
wbs_adr_i[28] I
wbs_adr_i[29] I
wbs_adr_i[2] I
wbs_adr_i[30] I
wbs_adr_i[31] I
wbs_adr_i[3] I
wbs_adr_i[4] I
wbs_adr_i[5] I
wbs_adr_i[6] I
wbs_adr_i[7] I
wbs_adr_i[8] I
wbs_adr_i[9] I
wbs_cyc_i I
wbs_dat_i[0] I
wbs_dat_i[10] I
wbs_dat_i[11] I
wbs_dat_i[12] I
wbs_dat_i[13] I
wbs_dat_i[14] I
wbs_dat_i[15] I
wbs_dat_i[16] I
wbs_dat_i[17] I
wbs_dat_i[18] I
wbs_dat_i[19] I
wbs_dat_i[1] I
wbs_dat_i[20] I
wbs_dat_i[21] I
wbs_dat_i[22] I
wbs_dat_i[23] I
wbs_dat_i[24] I
wbs_dat_i[25] I
wbs_dat_i[26] I
wbs_dat_i[27] I
wbs_dat_i[28] I
wbs_dat_i[29] I
wbs_dat_i[2] I
wbs_dat_i[30] I
wbs_dat_i[31] I
wbs_dat_i[3] I
wbs_dat_i[4] I
wbs_dat_i[5] I
wbs_dat_i[6] I
wbs_dat_i[7] I
wbs_dat_i[8] I
wbs_dat_i[9] I
wbs_dat_o[0] O
wbs_dat_o[10] O
wbs_dat_o[11] O
wbs_dat_o[12] O
wbs_dat_o[13] O
wbs_dat_o[14] O
wbs_dat_o[15] O
wbs_dat_o[16] O
wbs_dat_o[17] O
wbs_dat_o[18] O
wbs_dat_o[19] O
wbs_dat_o[1] O
wbs_dat_o[20] O
wbs_dat_o[21] O
wbs_dat_o[22] O
wbs_dat_o[23] O
wbs_dat_o[24] O
wbs_dat_o[25] O
wbs_dat_o[26] O
wbs_dat_o[27] O
wbs_dat_o[28] O
wbs_dat_o[29] O
wbs_dat_o[2] O
wbs_dat_o[30] O
wbs_dat_o[31] O
wbs_dat_o[3] O
wbs_dat_o[4] O
wbs_dat_o[5] O
wbs_dat_o[6] O
wbs_dat_o[7] O
wbs_dat_o[8] O
wbs_dat_o[9] O
wbs_sel_i[0] I
wbs_sel_i[1] I
wbs_sel_i[2] I
wbs_sel_i[3] I
wbs_stb_i I
wbs_we_i I

*D_NET *30 0.36727
*CONN
*P io_in[0] I
*I *339:s1 I *D sky130_osu_ring_oscillator_mpr2ea_8_b0r2
*I *338:s1 I *D sky130_osu_ring_oscillator_mpr2ct_8_b0r2
*I *345:s1 I *D sky130_osu_ring_oscillator_mpr2et_8_b0r1
*I *342:s1 I *D sky130_osu_ring_oscillator_mpr2ca_8_b0r1
*I *343:s1 I *D sky130_osu_ring_oscillator_mpr2ct_8_b0r1
*I *344:s1 I *D sky130_osu_ring_oscillator_mpr2ea_8_b0r1
*I *346:s1 I *D sky130_osu_ring_oscillator_mpr2xa_8_b0r1
*I *337:s1 I *D sky130_osu_ring_oscillator_mpr2ca_8_b0r2
*I *340:s1 I *D sky130_osu_ring_oscillator_mpr2et_8_b0r2
*I *341:s1 I *D sky130_osu_ring_oscillator_mpr2xa_8_b0r2
*CAP
1 io_in[0] 0.0696971
2 *339:s1 0.000487685
3 *338:s1 7.85233e-05
4 *345:s1 0.000515626
5 *342:s1 0.000119246
6 *343:s1 8.22243e-06
7 *344:s1 0.000336366
8 *346:s1 0.00174929
9 *337:s1 0.000196892
10 *340:s1 0.000548662
11 *341:s1 0.000439625
12 *30:220 0.00421253
13 *30:218 0.00509346
14 *30:197 0.00222553
15 *30:187 0.00489337
16 *30:166 0.00466599
17 *30:160 0.00507298
18 *30:158 0.0047222
19 *30:150 0.000818233
20 *30:148 0.00427898
21 *30:146 0.00542158
22 *30:114 0.0181321
23 *30:112 0.0184927
24 *30:88 0.00407165
25 *30:86 0.0030382
26 *30:82 0.000801128
27 *30:72 0.00476797
28 *30:70 0.00417612
29 *30:68 0.00105976
30 *30:64 0.00379269
31 *30:49 0.00397496
32 *30:45 0.00414362
33 *30:43 0.00475908
34 *30:19 0.00362456
35 *30:9 0.044382
36 *30:7 0.0420182
37 *30:5 0.0696971
38 *337:s1 *337:start 6.67086e-05
39 *337:s1 *41:133 0.000186082
40 *338:s1 *338:s2 7.71406e-05
41 *340:s1 *340:start 9.84729e-05
42 *345:s1 *345:start 8.60361e-05
43 *346:s1 *264:12 0
44 *30:19 *341:s2 0.00178724
45 *30:19 *341:s4 0.00236987
46 *30:19 *341:s5 0.000822144
47 *30:64 *41:95 0.00626857
48 *30:64 *41:111 0.000326787
49 *30:82 *41:115 0
50 *30:86 *338:s2 0.000314114
51 *30:86 *338:start 1.22294e-05
52 *30:88 *41:129 0.00773664
53 *30:112 *41:129 5.74309e-05
54 *30:114 *264:12 0
55 *30:148 *41:172 0
56 *30:148 *41:180 0
57 *30:158 *345:start 0.000315806
58 *30:158 *41:180 0.000221759
59 *30:160 *41:180 9.54798e-06
60 *30:160 *41:186 0
61 *30:197 *41:231 0
*RES
1 io_in[0] *30:5 215.539 
2 *30:5 *30:7 3.41 
3 *30:7 *30:9 864.696 
4 *30:9 *30:19 18.0217 
5 *30:19 *341:s1 17.808 
6 *30:19 *30:43 13.1878 
7 *30:43 *30:45 80.8036 
8 *30:45 *30:49 3.61607 
9 *30:49 *340:s1 25.3179 
10 *30:49 *30:64 96.2054 
11 *30:64 *30:68 5.11453 
12 *30:68 *30:70 3.41 
13 *30:70 *30:72 85.7321 
14 *30:72 *30:82 16.7433 
15 *30:82 *30:86 7.91071 
16 *30:86 *30:88 94.8393 
17 *30:88 *337:s1 10.0625 
18 *30:88 *30:112 12.0947 
19 *30:112 *30:114 360.964 
20 *30:114 *346:s1 12.5446 
21 *346:s1 *30:146 23.8006 
22 *30:146 *30:148 87.4018 
23 *30:148 *30:150 4.5 
24 *30:150 *30:158 13.1696 
25 *30:158 *30:160 90.7411 
26 *30:160 *30:166 21.8571 
27 *30:166 *344:s1 13.747 
28 *30:166 *30:187 75.4107 
29 *30:187 *30:197 25.2879 
30 *30:197 *343:s1 4.72321 
31 *30:197 *30:218 17.0371 
32 *30:218 *30:220 84.1964 
33 *30:220 *342:s1 1.91964 
34 *30:150 *345:s1 19.9429 
35 *30:82 *338:s1 2.02679 
36 *30:68 *339:s1 8.06193 
*END

*D_NET *41 0.388421
*CONN
*P io_in[1] I
*I *346:s2 I *D sky130_osu_ring_oscillator_mpr2xa_8_b0r1
*I *345:s2 I *D sky130_osu_ring_oscillator_mpr2et_8_b0r1
*I *343:s2 I *D sky130_osu_ring_oscillator_mpr2ct_8_b0r1
*I *342:s2 I *D sky130_osu_ring_oscillator_mpr2ca_8_b0r1
*I *344:s2 I *D sky130_osu_ring_oscillator_mpr2ea_8_b0r1
*I *337:s2 I *D sky130_osu_ring_oscillator_mpr2ca_8_b0r2
*I *338:s2 I *D sky130_osu_ring_oscillator_mpr2ct_8_b0r2
*I *339:s2 I *D sky130_osu_ring_oscillator_mpr2ea_8_b0r2
*I *340:s2 I *D sky130_osu_ring_oscillator_mpr2et_8_b0r2
*I *341:s2 I *D sky130_osu_ring_oscillator_mpr2xa_8_b0r2
*CAP
1 io_in[1] 0.000845045
2 *346:s2 8.82009e-05
3 *345:s2 0.00216983
4 *343:s2 0.000367374
5 *342:s2 0.000953297
6 *344:s2 3.50093e-05
7 *337:s2 3.01655e-05
8 *338:s2 0.00095378
9 *339:s2 0.00118311
10 *340:s2 0.000699092
11 *341:s2 0.0022123
12 *41:233 0.00502305
13 *41:231 0.00622603
14 *41:223 0.00297528
15 *41:219 0.00445507
16 *41:217 0.00451734
17 *41:192 0.00157552
18 *41:188 0.00436064
19 *41:186 0.00437517
20 *41:180 0.00463993
21 *41:172 0.00537133
22 *41:170 0.00561395
23 *41:158 0.00186659
24 *41:152 0.0179334
25 *41:150 0.0183888
26 *41:133 0.00148016
27 *41:129 0.00388751
28 *41:115 0.00476472
29 *41:111 0.00455496
30 *41:95 0.00726808
31 *41:93 0.00441346
32 *41:82 6.15062e-06
33 *41:65 0.00537901
34 *41:59 0.00561186
35 *41:57 0.00299809
36 *41:21 0.00296427
37 *41:13 0.0731638
38 *41:11 0.0724118
39 *41:9 0.033194
40 *41:7 0.034039
41 *339:s2 *339:start 4.83019e-06
42 *341:s2 *341:s3 0.00470113
43 *341:s2 *341:s4 0.00285394
44 *341:s2 *62:39 0.000432246
45 *342:s2 *342:start 2.49027e-05
46 *343:s2 *261:11 0.000367444
47 *346:s2 *280:8 0
48 *41:13 *52:13 0
49 *41:21 *341:s3 1.63116e-05
50 *41:21 *52:13 0.000117205
51 *41:21 *257:26 0
52 *41:21 *273:18 0
53 *41:59 *61:41 0.00767729
54 *41:59 *62:41 0
55 *41:59 *62:60 0
56 *41:65 *340:s3 0.000688716
57 *41:65 *340:s4 0.000798663
58 *41:65 *61:45 0.000757047
59 *41:152 *280:8 0
60 *41:158 *280:8 0
61 *337:s1 *41:133 0.000186082
62 *338:s1 *338:s2 7.71406e-05
63 *30:19 *341:s2 0.00178724
64 *30:64 *41:95 0.00626857
65 *30:64 *41:111 0.000326787
66 *30:82 *41:115 0
67 *30:86 *338:s2 0.000314114
68 *30:88 *41:129 0.00773664
69 *30:112 *41:129 5.74309e-05
70 *30:148 *41:172 0
71 *30:148 *41:180 0
72 *30:158 *41:180 0.000221759
73 *30:160 *41:180 9.54798e-06
74 *30:160 *41:186 0
75 *30:197 *41:231 0
*RES
1 io_in[1] *41:7 5.99187 
2 *41:7 *41:9 683.161 
3 *41:9 *41:11 3.41 
4 *41:11 *41:13 209.257 
5 *41:13 *41:21 17.1081 
6 *41:21 *341:s2 42.3148 
7 *41:21 *41:57 3.41 
8 *41:57 *41:59 94.2321 
9 *41:59 *41:65 16.8843 
10 *41:65 *340:s2 18.4247 
11 *340:s2 *41:82 0.129464 
12 *41:65 *41:93 17.4703 
13 *41:93 *41:95 76.7768 
14 *41:95 *339:s2 28.1696 
15 *41:95 *41:111 77.6875 
16 *41:111 *41:115 16.5982 
17 *41:115 *338:s2 24.9018 
18 *41:115 *41:129 95.75 
19 *41:129 *41:133 23.5179 
20 *41:133 *337:s2 10.0455 
21 *41:133 *41:150 15.7321 
22 *41:150 *41:152 366.991 
23 *41:152 *41:158 2.625 
24 *41:158 *41:170 12.9885 
25 *41:170 *41:172 81.1071 
26 *41:172 *41:180 29.4991 
27 *41:180 *41:186 24.5886 
28 *41:186 *41:188 68.6339 
29 *41:188 *41:192 24.75 
30 *41:192 *344:s2 9.83929 
31 *41:192 *41:217 17.7748 
32 *41:217 *41:219 82.0893 
33 *41:219 *41:223 4.61007 
34 *41:223 *41:231 26.4009 
35 *41:231 *41:233 83.7411 
36 *41:233 *342:s2 23.4911 
37 *41:223 *343:s2 12.6421 
38 *41:180 *345:s2 21.2248 
39 *41:158 *346:s2 1.88393 
*END

*D_NET *52 0.410312
*CONN
*P io_in[2] I
*I *346:s3 I *D sky130_osu_ring_oscillator_mpr2xa_8_b0r1
*I *342:s3 I *D sky130_osu_ring_oscillator_mpr2ca_8_b0r1
*I *343:s3 I *D sky130_osu_ring_oscillator_mpr2ct_8_b0r1
*I *344:s3 I *D sky130_osu_ring_oscillator_mpr2ea_8_b0r1
*I *345:s3 I *D sky130_osu_ring_oscillator_mpr2et_8_b0r1
*I *337:s3 I *D sky130_osu_ring_oscillator_mpr2ca_8_b0r2
*I *338:s3 I *D sky130_osu_ring_oscillator_mpr2ct_8_b0r2
*I *339:s3 I *D sky130_osu_ring_oscillator_mpr2ea_8_b0r2
*I *340:s3 I *D sky130_osu_ring_oscillator_mpr2et_8_b0r2
*I *341:s3 I *D sky130_osu_ring_oscillator_mpr2xa_8_b0r2
*CAP
1 io_in[2] 0.0102104
2 *346:s3 0.000774624
3 *342:s3 0.00202361
4 *343:s3 0.00268007
5 *344:s3 0.00276119
6 *345:s3 0.00208723
7 *337:s3 0.000450263
8 *338:s3 0.00207425
9 *339:s3 0.0021719
10 *340:s3 0.00185045
11 *341:s3 0.0022115
12 *52:277 0.00568258
13 *52:275 0.00399676
14 *52:244 0.00687035
15 *52:242 0.00421165
16 *52:210 0.00620678
17 *52:208 0.00308644
18 *52:180 0.00268034
19 *52:176 0.00347938
20 *52:174 0.006156
21 *52:160 0.0188243
22 *52:158 0.0154323
23 *52:151 0
24 *52:136 0.00434115
25 *52:126 0.00526444
26 *52:124 0.00202593
27 *52:103 0.00222503
28 *52:99 0.00266647
29 *52:97 0.00266405
30 *52:71 0.00232027
31 *52:69 0.00299218
32 *52:67 0.00299218
33 *52:43 0.00231217
34 *52:39 0.00354816
35 *52:37 0.00308644
36 *52:13 0.0634852
37 *52:11 0.0612737
38 *52:9 0.0248508
39 *52:7 0.0350612
40 *338:s3 *338:s4 0.00166039
41 *338:s3 *61:109 4.26748e-05
42 *339:s3 *339:s4 0.0022232
43 *339:s3 *61:103 4.04035e-05
44 *340:s3 *340:s4 0.00138482
45 *340:s3 *61:45 7.14719e-05
46 *340:s3 *62:60 0.000131527
47 *341:s3 *341:s4 0.000491889
48 *341:s3 *61:39 0.000803185
49 *342:s3 *342:s4 0.00222294
50 *344:s3 *61:211 0
51 *345:s3 *62:190 0.000129345
52 *345:s3 *310:22 0.000562133
53 *346:s3 *296:11 0
54 *52:39 *61:41 0.0080224
55 *52:39 *256:14 0
56 *52:39 *273:18 0
57 *52:43 *61:45 0.00137135
58 *52:43 *62:60 0.000176792
59 *52:69 *61:73 0.00720567
60 *52:97 *61:103 0.000343281
61 *52:99 *61:105 0.007483
62 *52:99 *270:18 0.00157457
63 *52:103 *61:109 0.00034224
64 *52:126 *61:130 0.00488475
65 *52:126 *62:104 2.2355e-05
66 *52:126 *270:18 0
67 *52:136 *61:130 0.000317098
68 *52:136 *61:138 0.00121545
69 *52:136 *62:126 2.4633e-05
70 *52:136 *62:128 0
71 *52:136 *270:18 0
72 *52:160 *296:11 0
73 *52:160 *296:13 0.0110881
74 *52:174 *346:s4 0
75 *52:174 *61:183 0.00133967
76 *52:174 *62:136 0
77 *52:174 *264:14 0.00120354
78 *52:174 *270:18 0
79 *52:174 *295:22 0.000376927
80 *52:176 *61:185 0.00675566
81 *52:176 *61:205 0.000584194
82 *52:176 *326:11 6.2258e-05
83 *52:180 *61:205 0.000272334
84 *52:180 *62:190 2.00203e-06
85 *52:180 *310:22 0.000376927
86 *52:210 *61:207 0.0072096
87 *52:210 *62:204 0.000927664
88 *52:242 *62:204 0.000467746
89 *52:244 *61:259 0.00177944
90 *52:244 *62:204 0
91 *52:244 *62:208 0
92 *52:275 *61:259 0.00044226
93 *52:277 *342:s5 0
94 *52:277 *61:259 0
95 *52:277 *61:263 0.00212105
96 *52:277 *62:236 0
97 *341:s2 *341:s3 0.00470113
98 *41:13 *52:13 0
99 *41:21 *341:s3 1.63116e-05
100 *41:21 *52:13 0.000117205
101 *41:65 *340:s3 0.000688716
*RES
1 io_in[2] *52:7 33.0169 
2 *52:7 *52:9 511.339 
3 *52:9 *52:11 3.41 
4 *52:11 *52:13 183.096 
5 *52:13 *341:s3 30.3882 
6 *52:13 *52:37 3.41 
7 *52:37 *52:39 99.0893 
8 *52:39 *52:43 5.69107 
9 *52:43 *340:s3 28.1494 
10 *52:43 *52:67 3.41 
11 *52:67 *52:69 89.9821 
12 *52:69 *52:71 3.41 
13 *52:71 *339:s3 25.4442 
14 *52:71 *52:97 3.96147 
15 *52:97 *52:99 92.4107 
16 *52:99 *52:103 3.96147 
17 *52:103 *338:s3 21.5007 
18 *52:103 *52:124 3.41 
19 *52:124 *52:126 61.4821 
20 *52:126 *52:136 44.7044 
21 *52:136 *337:s3 13.4866 
22 *337:s3 *52:151 0.205882 
23 *52:136 *52:158 13.2679 
24 *52:158 *52:160 345.536 
25 *52:160 *52:174 42.3877 
26 *52:174 *52:176 92.4107 
27 *52:176 *52:180 5.25867 
28 *52:180 *345:s3 24.1349 
29 *52:180 *52:208 3.41 
30 *52:208 *52:210 96.0536 
31 *52:210 *344:s3 31.0921 
32 *52:210 *52:242 9.28571 
33 *52:242 *52:244 86.6607 
34 *52:244 *343:s3 27.8429 
35 *52:244 *52:275 12.9608 
36 *52:275 *52:277 87.5536 
37 *52:277 *342:s3 26.3052 
38 *52:160 *346:s3 16.492 
*END

*D_NET *61 0.392285
*CONN
*P io_in[3] I
*I *342:s4 I *D sky130_osu_ring_oscillator_mpr2ca_8_b0r1
*I *343:s4 I *D sky130_osu_ring_oscillator_mpr2ct_8_b0r1
*I *344:s4 I *D sky130_osu_ring_oscillator_mpr2ea_8_b0r1
*I *345:s4 I *D sky130_osu_ring_oscillator_mpr2et_8_b0r1
*I *346:s4 I *D sky130_osu_ring_oscillator_mpr2xa_8_b0r1
*I *337:s4 I *D sky130_osu_ring_oscillator_mpr2ca_8_b0r2
*I *338:s4 I *D sky130_osu_ring_oscillator_mpr2ct_8_b0r2
*I *339:s4 I *D sky130_osu_ring_oscillator_mpr2ea_8_b0r2
*I *340:s4 I *D sky130_osu_ring_oscillator_mpr2et_8_b0r2
*I *341:s4 I *D sky130_osu_ring_oscillator_mpr2xa_8_b0r2
*CAP
1 io_in[3] 0.069216
2 *342:s4 0.00116819
3 *343:s4 0.000441286
4 *344:s4 0.000419605
5 *345:s4 0.00115278
6 *346:s4 0.000475626
7 *337:s4 0.000159679
8 *338:s4 0.00106279
9 *339:s4 0.00130636
10 *340:s4 0.000966491
11 *341:s4 0.000934644
12 *61:263 0.00297156
13 *61:261 0.00189019
14 *61:259 0.00282064
15 *61:257 0.00391073
16 *61:237 0.00174855
17 *61:233 0.00391862
18 *61:231 0.00378827
19 *61:211 0.00158134
20 *61:207 0.00427809
21 *61:205 0.00373481
22 *61:185 0.00306125
23 *61:183 0.00324139
24 *61:157 0.002427
25 *61:155 0.0120264
26 *61:153 0.0121515
27 *61:138 0.0017373
28 *61:130 0.00251975
29 *61:128 0.00106723
30 *61:109 0.00127394
31 *61:105 0.00306529
32 *61:103 0.00306381
33 *61:75 0.00151603
34 *61:73 0.00292944
35 *61:71 0.00292944
36 *61:45 0.00129027
37 *61:41 0.00170915
38 *61:39 0.00169323
39 *61:32 6.15062e-06
40 *61:11 0.00123635
41 *61:9 0.0134046
42 *61:7 0.0134046
43 *61:5 0.069216
44 *341:s4 *341:s5 0.000467541
45 *343:s4 *309:8 0
46 *61:9 *62:9 0.0124816
47 *61:9 *62:39 0.000155504
48 *61:41 *62:60 0
49 *61:73 *62:74 0.000307384
50 *61:105 *270:18 2.2355e-05
51 *61:130 *62:104 0.00590937
52 *61:138 *62:104 1.34223e-05
53 *61:138 *62:108 0.000395809
54 *61:138 *62:126 0.000302829
55 *61:155 *312:9 0.0260329
56 *61:183 *62:136 0
57 *61:183 *62:156 0.00106355
58 *61:185 *62:158 0.00639133
59 *61:185 *326:11 0.000228881
60 *61:205 *62:190 0.000205026
61 *61:205 *326:11 0.000303711
62 *61:259 *62:208 0
63 *61:259 *62:234 0
64 *61:259 *62:236 0
65 *338:s3 *338:s4 0.00166039
66 *338:s3 *61:109 4.26748e-05
67 *339:s3 *339:s4 0.0022232
68 *339:s3 *61:103 4.04035e-05
69 *340:s3 *340:s4 0.00138482
70 *340:s3 *61:45 7.14719e-05
71 *341:s2 *341:s4 0.00285394
72 *341:s3 *341:s4 0.000491889
73 *341:s3 *61:39 0.000803185
74 *342:s3 *342:s4 0.00222294
75 *344:s3 *61:211 0
76 *30:19 *341:s4 0.00236987
77 *41:59 *61:41 0.00767729
78 *41:65 *340:s4 0.000798663
79 *41:65 *61:45 0.000757047
80 *52:39 *61:41 0.0080224
81 *52:43 *61:45 0.00137135
82 *52:69 *61:73 0.00720567
83 *52:97 *61:103 0.000343281
84 *52:99 *61:105 0.007483
85 *52:103 *61:109 0.00034224
86 *52:126 *61:130 0.00488475
87 *52:136 *61:130 0.000317098
88 *52:136 *61:138 0.00121545
89 *52:174 *346:s4 0
90 *52:174 *61:183 0.00133967
91 *52:176 *61:185 0.00675566
92 *52:176 *61:205 0.000584194
93 *52:180 *61:205 0.000272334
94 *52:210 *61:207 0.0072096
95 *52:244 *61:259 0.00177944
96 *52:275 *61:259 0.00044226
97 *52:277 *61:259 0
98 *52:277 *61:263 0.00212105
*RES
1 io_in[3] *61:5 213.953 
2 *61:5 *61:7 3.41 
3 *61:7 *61:9 332.839 
4 *61:9 *61:11 3.41 
5 *61:11 *341:s4 25.507 
6 *341:s4 *61:32 0.129464 
7 *61:11 *61:39 4.68213 
8 *61:39 *61:41 99.0893 
9 *61:41 *61:45 5.69107 
10 *61:45 *340:s4 25.6011 
11 *61:45 *61:71 3.41 
12 *61:71 *61:73 91.1964 
13 *61:73 *61:75 3.41 
14 *61:75 *339:s4 23.7561 
15 *61:75 *61:103 4.1056 
16 *61:103 *61:105 92.4107 
17 *61:105 *61:109 4.1056 
18 *61:109 *338:s4 19.219 
19 *61:109 *61:128 3.41 
20 *61:128 *61:130 72.375 
21 *61:130 *61:138 22.8419 
22 *61:138 *337:s4 4.0398 
23 *61:138 *61:153 3.93483 
24 *61:153 *61:155 365.625 
25 *61:155 *61:157 3.41 
26 *61:157 *346:s4 8.02716 
27 *61:157 *61:183 29.1579 
28 *61:183 *61:185 85.2768 
29 *61:185 *345:s4 27.0446 
30 *61:185 *61:205 15.7835 
31 *61:205 *61:207 92.4107 
32 *61:207 *61:211 6.84413 
33 *61:211 *344:s4 6.7004 
34 *61:211 *61:231 3.41 
35 *61:231 *61:233 77.2321 
36 *61:233 *61:237 3.81733 
37 *61:237 *343:s4 16.6957 
38 *61:237 *61:257 7.11673 
39 *61:257 *61:259 64.8214 
40 *61:259 *61:261 1.76786 
41 *61:261 *61:263 49.5714 
42 *61:263 *342:s4 22.7433 
*END

*D_NET *62 0.298366
*CONN
*P io_in[4] I
*I *342:s5 I *D sky130_osu_ring_oscillator_mpr2ca_8_b0r1
*I *343:s5 I *D sky130_osu_ring_oscillator_mpr2ct_8_b0r1
*I *344:s5 I *D sky130_osu_ring_oscillator_mpr2ea_8_b0r1
*I *345:s5 I *D sky130_osu_ring_oscillator_mpr2et_8_b0r1
*I *346:s5 I *D sky130_osu_ring_oscillator_mpr2xa_8_b0r1
*I *337:s5 I *D sky130_osu_ring_oscillator_mpr2ca_8_b0r2
*I *338:s5 I *D sky130_osu_ring_oscillator_mpr2ct_8_b0r2
*I *339:s5 I *D sky130_osu_ring_oscillator_mpr2ea_8_b0r2
*I *340:s5 I *D sky130_osu_ring_oscillator_mpr2et_8_b0r2
*I *341:s5 I *D sky130_osu_ring_oscillator_mpr2xa_8_b0r2
*CAP
1 io_in[4] 0.0692485
2 *342:s5 0.000233708
3 *343:s5 0.000152248
4 *344:s5 0.00456826
5 *345:s5 0.00148255
6 *346:s5 0.000241939
7 *337:s5 0.000227419
8 *338:s5 7.57787e-05
9 *339:s5 0.00400825
10 *340:s5 0.00024164
11 *341:s5 0.000951046
12 *62:236 0.00449426
13 *62:234 0.00488742
14 *62:208 0.00139347
15 *62:204 0.00414362
16 *62:202 0.00378986
17 *62:190 0.00521237
18 *62:158 0.00186808
19 *62:156 0.0024089
20 *62:136 0.00206042
21 *62:128 0.0182465
22 *62:126 0.017848
23 *62:115 3.26454e-06
24 *62:108 0.000976385
25 *62:104 0.00272869
26 *62:102 0.00323255
27 *62:74 0.00529762
28 *62:72 0.00448676
29 *62:60 0.00556838
30 *62:41 0.00608525
31 *62:39 0.00452443
32 *62:9 0.00611201
33 *62:7 0.00470027
34 *62:5 0.0692485
35 *337:s5 *269:7 0
36 *337:s5 *317:9 0
37 *340:s5 *320:7 0
38 *345:s5 *327:9 1.20716e-05
39 *62:74 *270:18 0
40 *62:102 *270:18 0
41 *62:115 *269:7 0
42 *62:128 *270:18 0
43 *62:136 *264:20 0.000338429
44 *62:136 *328:8 0
45 *62:158 *326:11 0.00643771
46 *340:s3 *62:60 0.000131527
47 *341:s2 *62:39 0.000432246
48 *341:s4 *341:s5 0.000467541
49 *345:s3 *62:190 0.000129345
50 *30:19 *341:s5 0.000822144
51 *41:59 *62:41 0
52 *41:59 *62:60 0
53 *52:43 *62:60 0.000176792
54 *52:126 *62:104 2.2355e-05
55 *52:136 *62:126 2.4633e-05
56 *52:136 *62:128 0
57 *52:174 *62:136 0
58 *52:180 *62:190 2.00203e-06
59 *52:210 *62:204 0.000927664
60 *52:242 *62:204 0.000467746
61 *52:244 *62:204 0
62 *52:244 *62:208 0
63 *52:277 *342:s5 0
64 *52:277 *62:236 0
65 *61:9 *62:9 0.0124816
66 *61:9 *62:39 0.000155504
67 *61:41 *62:60 0
68 *61:73 *62:74 0.000307384
69 *61:130 *62:104 0.00590937
70 *61:138 *62:104 1.34223e-05
71 *61:138 *62:108 0.000395809
72 *61:138 *62:126 0.000302829
73 *61:183 *62:136 0
74 *61:183 *62:156 0.00106355
75 *61:185 *62:158 0.00639133
76 *61:205 *62:190 0.000205026
77 *61:259 *62:208 0
78 *61:259 *62:234 0
79 *61:259 *62:236 0
*RES
1 io_in[4] *62:5 214.025 
2 *62:5 *62:7 3.41 
3 *62:7 *62:9 153.125 
4 *62:9 *341:s5 25.2529 
5 *62:9 *62:39 13.1049 
6 *62:39 *62:41 79.8125 
7 *62:41 *340:s5 9.14286 
8 *62:41 *62:60 28.7911 
9 *62:60 *339:s5 77.3839 
10 *339:s5 *62:72 8.66964 
11 *62:72 *62:74 89.6786 
12 *62:74 *338:s5 5.84821 
13 *62:74 *62:102 20.7372 
14 *62:102 *62:104 73.8393 
15 *62:104 *62:108 9.91964 
16 *62:108 *337:s5 8.73214 
17 *337:s5 *62:115 0.194444 
18 *62:108 *62:126 8.0625 
19 *62:126 *62:128 360.964 
20 *62:128 *62:136 20.5804 
21 *62:136 *346:s5 4.91964 
22 *62:136 *62:156 21.5239 
23 *62:156 *62:158 80.4196 
24 *62:158 *345:s5 20.0357 
25 *345:s5 *62:190 22.2949 
26 *62:190 *344:s5 87.7054 
27 *344:s5 *62:202 9.49107 
28 *62:202 *62:204 78.2946 
29 *62:204 *62:208 12.1964 
30 *62:208 *343:s5 7.35714 
31 *62:208 *62:234 14.6773 
32 *62:234 *62:236 86.9464 
33 *62:236 *342:s5 9.10714 
*END

*D_NET *63 0.253912
*CONN
*P io_in[5] I
*I *342:start I *D sky130_osu_ring_oscillator_mpr2ca_8_b0r1
*I *343:start I *D sky130_osu_ring_oscillator_mpr2ct_8_b0r1
*I *344:start I *D sky130_osu_ring_oscillator_mpr2ea_8_b0r1
*I *345:start I *D sky130_osu_ring_oscillator_mpr2et_8_b0r1
*I *346:start I *D sky130_osu_ring_oscillator_mpr2xa_8_b0r1
*I *337:start I *D sky130_osu_ring_oscillator_mpr2ca_8_b0r2
*I *338:start I *D sky130_osu_ring_oscillator_mpr2ct_8_b0r2
*I *339:start I *D sky130_osu_ring_oscillator_mpr2ea_8_b0r2
*I *340:start I *D sky130_osu_ring_oscillator_mpr2et_8_b0r2
*I *341:start I *D sky130_osu_ring_oscillator_mpr2xa_8_b0r2
*CAP
1 io_in[5] 0.00107232
2 *342:start 0.000522336
3 *343:start 0.000540176
4 *344:start 0.00061521
5 *345:start 0.000539699
6 *346:start 0.000599226
7 *337:start 0.000597692
8 *338:start 0.000599903
9 *339:start 0.000600669
10 *340:start 0.000570596
11 *341:start 0.00216595
12 *63:137 0.00508888
13 *63:132 0
14 *63:125 0.00975923
15 *63:111 0.00971935
16 *63:97 0.00957806
17 *63:83 0.0235034
18 *63:65 0.0233995
19 *63:53 0.00965077
20 *63:41 0.00973376
21 *63:29 0.00813464
22 *63:15 0.00516345
23 *63:13 0.065038
24 *63:11 0.0661104
25 *337:s1 *337:start 6.67086e-05
26 *339:s2 *339:start 4.83019e-06
27 *340:s1 *340:start 9.84729e-05
28 *342:s2 *342:start 2.49027e-05
29 *345:s1 *345:start 8.60361e-05
30 *30:86 *338:start 1.22294e-05
31 *30:158 *345:start 0.000315806
*RES
1 io_in[5] *63:11 13.2693 
2 *63:11 *63:13 1296.75 
3 *63:13 *63:15 4.5 
4 *63:15 *341:start 48.4375 
5 *63:15 *63:29 61.4464 
6 *63:29 *340:start 15.8795 
7 *63:29 *63:41 93.9286 
8 *63:41 *339:start 15.9375 
9 *63:41 *63:53 93.9286 
10 *63:53 *338:start 15.9911 
11 *63:53 *63:65 92.1071 
12 *63:65 *337:start 17.2946 
13 *63:65 *63:83 376.857 
14 *63:83 *346:start 16.0804 
15 *63:83 *63:97 93.9286 
16 *63:97 *345:start 16.1339 
17 *63:97 *63:111 91.5 
18 *63:111 *344:start 16.4018 
19 *63:111 *63:125 95.1429 
20 *63:125 *343:start 14.8929 
21 *343:start *63:132 0.134615 
22 *63:125 *63:137 93.9286 
23 *63:137 *342:start 14.8304 
*END

*D_NET *64 0.116499
*CONN
*P io_in[6] I
*I *335:select[0] I *D mux16x1_project
*I *334:select[0] I *D mux16x1_project
*I *333:select[0] I *D mux16x1_project
*I *332:select[0] I *D mux16x1_project
*I *336:select[0] I *D mux16x1_project
*CAP
1 io_in[6] 0.0138832
2 *335:select[0] 7.44102e-05
3 *334:select[0] 7.44102e-05
4 *333:select[0] 7.28368e-05
5 *332:select[0] 0.000466051
6 *336:select[0] 0.000488386
7 *64:77 0.00515697
8 *64:75 0.00505746
9 *64:69 0.00430268
10 *64:67 0.00419413