*SPEF "ieee 1481-1999"
*DESIGN "user_project_wrapper"
*DATE "11:11:11 Fri 11 11, 1111"
*VENDOR "OpenRCX"
*PROGRAM "Parallel Extraction"
*VERSION "1.0"
*DESIGN_FLOW "NAME_SCOPE LOCAL" "PIN_CAP NONE"
*DIVIDER /
*DELIMITER :
*BUS_DELIMITER []
*T_UNIT 1 NS
*C_UNIT 1 PF
*R_UNIT 1 OHM
*L_UNIT 1 HENRY

*NAME_MAP
*1 analog_io[0]
*2 analog_io[10]
*3 analog_io[11]
*4 analog_io[12]
*5 analog_io[13]
*6 analog_io[14]
*7 analog_io[15]
*8 analog_io[16]
*9 analog_io[17]
*10 analog_io[18]
*11 analog_io[19]
*12 analog_io[1]
*13 analog_io[20]
*14 analog_io[21]
*15 analog_io[22]
*16 analog_io[23]
*17 analog_io[24]
*18 analog_io[25]
*19 analog_io[26]
*20 analog_io[27]
*21 analog_io[28]
*22 analog_io[2]
*23 analog_io[3]
*24 analog_io[4]
*25 analog_io[5]
*26 analog_io[6]
*27 analog_io[7]
*28 analog_io[8]
*29 analog_io[9]
*30 io_in[0]
*31 io_in[10]
*32 io_in[11]
*33 io_in[12]
*34 io_in[13]
*35 io_in[14]
*36 io_in[15]
*37 io_in[16]
*38 io_in[17]
*39 io_in[18]
*40 io_in[19]
*41 io_in[1]
*42 io_in[20]
*43 io_in[21]
*44 io_in[22]
*45 io_in[23]
*46 io_in[24]
*47 io_in[25]
*48 io_in[26]
*49 io_in[27]
*50 io_in[28]
*51 io_in[29]
*52 io_in[2]
*53 io_in[30]
*54 io_in[31]
*55 io_in[32]
*56 io_in[33]
*57 io_in[34]
*58 io_in[35]
*59 io_in[36]
*60 io_in[37]
*61 io_in[3]
*62 io_in[4]
*63 io_in[5]
*64 io_in[6]
*65 io_in[7]
*66 io_in[8]
*67 io_in[9]
*68 io_oeb[0]
*69 io_oeb[10]
*70 io_oeb[11]
*71 io_oeb[12]
*72 io_oeb[13]
*73 io_oeb[14]
*74 io_oeb[15]
*75 io_oeb[16]
*76 io_oeb[17]
*77 io_oeb[18]
*78 io_oeb[19]
*79 io_oeb[1]
*80 io_oeb[20]
*81 io_oeb[21]
*82 io_oeb[22]
*83 io_oeb[23]
*84 io_oeb[24]
*85 io_oeb[25]
*86 io_oeb[26]
*87 io_oeb[27]
*88 io_oeb[28]
*89 io_oeb[29]
*90 io_oeb[2]
*91 io_oeb[30]
*92 io_oeb[31]
*93 io_oeb[32]
*94 io_oeb[33]
*95 io_oeb[34]
*96 io_oeb[35]
*97 io_oeb[36]
*98 io_oeb[37]
*99 io_oeb[3]
*100 io_oeb[4]
*101 io_oeb[5]
*102 io_oeb[6]
*103 io_oeb[7]
*104 io_oeb[8]
*105 io_oeb[9]
*106 io_out[0]
*107 io_out[10]
*108 io_out[11]
*109 io_out[12]
*110 io_out[13]
*111 io_out[14]
*112 io_out[15]
*113 io_out[16]
*114 io_out[17]
*115 io_out[18]
*116 io_out[19]
*117 io_out[1]
*118 io_out[20]
*119 io_out[21]
*120 io_out[22]
*121 io_out[23]
*122 io_out[24]
*123 io_out[25]
*124 io_out[26]
*125 io_out[27]
*126 io_out[28]
*127 io_out[29]
*128 io_out[2]
*129 io_out[30]
*130 io_out[31]
*131 io_out[32]
*132 io_out[33]
*133 io_out[34]
*134 io_out[35]
*135 io_out[36]
*136 io_out[37]
*137 io_out[3]
*138 io_out[4]
*139 io_out[5]
*140 io_out[6]
*141 io_out[7]
*142 io_out[8]
*143 io_out[9]
*146 wb_clk_i
*147 wb_rst_i
*148 wbs_ack_o
*149 wbs_adr_i[0]
*150 wbs_adr_i[10]
*151 wbs_adr_i[11]
*152 wbs_adr_i[12]
*153 wbs_adr_i[13]
*154 wbs_adr_i[14]
*155 wbs_adr_i[15]
*156 wbs_adr_i[16]
*157 wbs_adr_i[17]
*158 wbs_adr_i[18]
*159 wbs_adr_i[19]
*160 wbs_adr_i[1]
*161 wbs_adr_i[20]
*162 wbs_adr_i[21]
*163 wbs_adr_i[22]
*164 wbs_adr_i[23]
*165 wbs_adr_i[24]
*166 wbs_adr_i[25]
*167 wbs_adr_i[26]
*168 wbs_adr_i[27]
*169 wbs_adr_i[28]
*170 wbs_adr_i[29]
*171 wbs_adr_i[2]
*172 wbs_adr_i[30]
*173 wbs_adr_i[31]
*174 wbs_adr_i[3]
*175 wbs_adr_i[4]
*176 wbs_adr_i[5]
*177 wbs_adr_i[6]
*178 wbs_adr_i[7]
*179 wbs_adr_i[8]
*180 wbs_adr_i[9]
*181 wbs_cyc_i
*182 wbs_dat_i[0]
*183 wbs_dat_i[10]
*184 wbs_dat_i[11]
*185 wbs_dat_i[12]
*186 wbs_dat_i[13]
*187 wbs_dat_i[14]
*188 wbs_dat_i[15]
*189 wbs_dat_i[16]
*190 wbs_dat_i[17]
*191 wbs_dat_i[18]
*192 wbs_dat_i[19]
*193 wbs_dat_i[1]
*194 wbs_dat_i[20]
*195 wbs_dat_i[21]
*196 wbs_dat_i[22]
*197 wbs_dat_i[23]
*198 wbs_dat_i[24]
*199 wbs_dat_i[25]
*200 wbs_dat_i[26]
*201 wbs_dat_i[27]
*202 wbs_dat_i[28]
*203 wbs_dat_i[29]
*204 wbs_dat_i[2]
*205 wbs_dat_i[30]
*206 wbs_dat_i[31]
*207 wbs_dat_i[3]
*208 wbs_dat_i[4]
*209 wbs_dat_i[5]
*210 wbs_dat_i[6]
*211 wbs_dat_i[7]
*212 wbs_dat_i[8]
*213 wbs_dat_i[9]
*214 wbs_dat_o[0]
*215 wbs_dat_o[10]
*216 wbs_dat_o[11]
*217 wbs_dat_o[12]
*218 wbs_dat_o[13]
*219 wbs_dat_o[14]
*220 wbs_dat_o[15]
*221 wbs_dat_o[16]
*222 wbs_dat_o[17]
*223 wbs_dat_o[18]
*224 wbs_dat_o[19]
*225 wbs_dat_o[1]
*226 wbs_dat_o[20]
*227 wbs_dat_o[21]
*228 wbs_dat_o[22]
*229 wbs_dat_o[23]
*230 wbs_dat_o[24]
*231 wbs_dat_o[25]
*232 wbs_dat_o[26]
*233 wbs_dat_o[27]
*234 wbs_dat_o[28]
*235 wbs_dat_o[29]
*236 wbs_dat_o[2]
*237 wbs_dat_o[30]
*238 wbs_dat_o[31]
*239 wbs_dat_o[3]
*240 wbs_dat_o[4]
*241 wbs_dat_o[5]
*242 wbs_dat_o[6]
*243 wbs_dat_o[7]
*244 wbs_dat_o[8]
*245 wbs_dat_o[9]
*246 wbs_sel_i[0]
*247 wbs_sel_i[1]
*248 wbs_sel_i[2]
*249 wbs_sel_i[3]
*250 wbs_stb_i
*251 wbs_we_i
*252 x1\[0\]
*253 x1\[10\]
*254 x1\[11\]
*255 x1\[12\]
*256 x1\[13\]
*257 x1\[14\]
*258 x1\[15\]
*259 x1\[1\]
*260 x1\[2\]
*261 x1\[3\]
*262 x1\[4\]
*263 x1\[5\]
*264 x1\[6\]
*265 x1\[7\]
*266 x1\[8\]
*267 x1\[9\]
*268 x2\[0\]
*269 x2\[10\]
*270 x2\[11\]
*271 x2\[12\]
*272 x2\[13\]
*273 x2\[14\]
*274 x2\[15\]
*275 x2\[1\]
*276 x2\[2\]
*277 x2\[3\]
*278 x2\[4\]
*279 x2\[5\]
*280 x2\[6\]
*281 x2\[7\]
*282 x2\[8\]
*283 x2\[9\]
*284 x3\[0\]
*285 x3\[10\]
*286 x3\[11\]
*287 x3\[12\]
*288 x3\[13\]
*289 x3\[14\]
*290 x3\[15\]
*291 x3\[1\]
*292 x3\[2\]
*293 x3\[3\]
*294 x3\[4\]
*295 x3\[5\]
*296 x3\[6\]
*297 x3\[7\]
*298 x3\[8\]
*299 x3\[9\]
*300 x4\[0\]
*301 x4\[10\]
*302 x4\[11\]
*303 x4\[12\]
*304 x4\[13\]
*305 x4\[14\]
*306 x4\[15\]
*307 x4\[1\]
*308 x4\[2\]
*309 x4\[3\]
*310 x4\[4\]
*311 x4\[5\]
*312 x4\[6\]
*313 x4\[7\]
*314 x4\[8\]
*315 x4\[9\]
*316 x5\[0\]
*317 x5\[10\]
*318 x5\[11\]
*319 x5\[12\]
*320 x5\[13\]
*321 x5\[14\]
*322 x5\[15\]
*323 x5\[1\]
*324 x5\[2\]
*325 x5\[3\]
*326 x5\[4\]
*327 x5\[5\]
*328 x5\[6\]
*329 x5\[7\]
*330 x5\[8\]
*331 x5\[9\]
*332 mprj1
*333 mprj2
*334 mprj3
*335 mprj4
*336 mprj5
*337 ro1
*338 ro10
*339 ro11
*340 ro12
*341 ro13
*342 ro14
*343 ro15
*344 ro16
*345 ro2
*346 ro3
*347 ro4
*348 ro5
*349 ro6
*350 ro7
*351 ro8
*352 ro9

*PORTS
analog_io[0] I
analog_io[10] I
analog_io[11] I
analog_io[12] I
analog_io[13] I
analog_io[14] I
analog_io[15] I
analog_io[16] I
analog_io[17] I
analog_io[18] I
analog_io[19] I
analog_io[1] I
analog_io[20] I
analog_io[21] I
analog_io[22] I
analog_io[23] I
analog_io[24] I
analog_io[25] I
analog_io[26] I
analog_io[27] I
analog_io[28] I
analog_io[2] I
analog_io[3] I
analog_io[4] I
analog_io[5] I
analog_io[6] I
analog_io[7] I
analog_io[8] I
analog_io[9] I
io_in[0] I
io_in[10] I
io_in[11] I
io_in[12] I
io_in[13] I
io_in[14] I
io_in[15] I
io_in[16] I
io_in[17] I
io_in[18] I
io_in[19] I
io_in[1] I
io_in[20] I
io_in[21] I
io_in[22] I
io_in[23] I
io_in[24] I
io_in[25] I
io_in[26] I
io_in[27] I
io_in[28] I
io_in[29] I
io_in[2] I
io_in[30] I
io_in[31] I
io_in[32] I
io_in[33] I
io_in[34] I
io_in[35] I
io_in[36] I
io_in[37] I
io_in[3] I
io_in[4] I
io_in[5] I
io_in[6] I
io_in[7] I
io_in[8] I
io_in[9] I
io_oeb[0] O
io_oeb[10] O
io_oeb[11] O
io_oeb[12] O
io_oeb[13] O
io_oeb[14] O
io_oeb[15] O
io_oeb[16] O
io_oeb[17] O
io_oeb[18] O
io_oeb[19] O
io_oeb[1] O
io_oeb[20] O
io_oeb[21] O
io_oeb[22] O
io_oeb[23] O
io_oeb[24] O
io_oeb[25] O
io_oeb[26] O
io_oeb[27] O
io_oeb[28] O
io_oeb[29] O
io_oeb[2] O
io_oeb[30] O
io_oeb[31] O
io_oeb[32] O
io_oeb[33] O
io_oeb[34] O
io_oeb[35] O
io_oeb[36] O
io_oeb[37] O
io_oeb[3] O
io_oeb[4] O
io_oeb[5] O
io_oeb[6] O
io_oeb[7] O
io_oeb[8] O
io_oeb[9] O
io_out[0] O
io_out[10] O
io_out[11] O
io_out[12] O
io_out[13] O
io_out[14] O
io_out[15] O
io_out[16] O
io_out[17] O
io_out[18] O
io_out[19] O
io_out[1] O
io_out[20] O
io_out[21] O
io_out[22] O
io_out[23] O
io_out[24] O
io_out[25] O
io_out[26] O
io_out[27] O
io_out[28] O
io_out[29] O
io_out[2] O
io_out[30] O
io_out[31] O
io_out[32] O
io_out[33] O
io_out[34] O
io_out[35] O
io_out[36] O
io_out[37] O
io_out[3] O
io_out[4] O
io_out[5] O
io_out[6] O
io_out[7] O
io_out[8] O
io_out[9] O
wb_clk_i I
wb_rst_i I
wbs_ack_o O
wbs_adr_i[0] I
wbs_adr_i[10] I
wbs_adr_i[11] I
wbs_adr_i[12] I
wbs_adr_i[13] I
wbs_adr_i[14] I
wbs_adr_i[15] I
wbs_adr_i[16] I
wbs_adr_i[17] I
wbs_adr_i[18] I
wbs_adr_i[19] I
wbs_adr_i[1] I
wbs_adr_i[20] I
wbs_adr_i[21] I
wbs_adr_i[22] I
wbs_adr_i[23] I
wbs_adr_i[24] I
wbs_adr_i[25] I
wbs_adr_i[26] I
wbs_adr_i[27] I
wbs_adr_i[28] I
wbs_adr_i[29] I
wbs_adr_i[2] I
wbs_adr_i[30] I
wbs_adr_i[31] I
wbs_adr_i[3] I
wbs_adr_i[4] I
wbs_adr_i[5] I
wbs_adr_i[6] I
wbs_adr_i[7] I
wbs_adr_i[8] I
wbs_adr_i[9] I
wbs_cyc_i I
wbs_dat_i[0] I
wbs_dat_i[10] I
wbs_dat_i[11] I
wbs_dat_i[12] I
wbs_dat_i[13] I
wbs_dat_i[14] I
wbs_dat_i[15] I
wbs_dat_i[16] I
wbs_dat_i[17] I
wbs_dat_i[18] I
wbs_dat_i[19] I
wbs_dat_i[1] I
wbs_dat_i[20] I
wbs_dat_i[21] I
wbs_dat_i[22] I
wbs_dat_i[23] I
wbs_dat_i[24] I
wbs_dat_i[25] I
wbs_dat_i[26] I
wbs_dat_i[27] I
wbs_dat_i[28] I
wbs_dat_i[29] I
wbs_dat_i[2] I
wbs_dat_i[30] I
wbs_dat_i[31] I
wbs_dat_i[3] I
wbs_dat_i[4] I
wbs_dat_i[5] I
wbs_dat_i[6] I
wbs_dat_i[7] I
wbs_dat_i[8] I
wbs_dat_i[9] I
wbs_dat_o[0] O
wbs_dat_o[10] O
wbs_dat_o[11] O
wbs_dat_o[12] O
wbs_dat_o[13] O
wbs_dat_o[14] O
wbs_dat_o[15] O
wbs_dat_o[16] O
wbs_dat_o[17] O
wbs_dat_o[18] O
wbs_dat_o[19] O
wbs_dat_o[1] O
wbs_dat_o[20] O
wbs_dat_o[21] O
wbs_dat_o[22] O
wbs_dat_o[23] O
wbs_dat_o[24] O
wbs_dat_o[25] O
wbs_dat_o[26] O
wbs_dat_o[27] O
wbs_dat_o[28] O
wbs_dat_o[29] O
wbs_dat_o[2] O
wbs_dat_o[30] O
wbs_dat_o[31] O
wbs_dat_o[3] O
wbs_dat_o[4] O
wbs_dat_o[5] O
wbs_dat_o[6] O
wbs_dat_o[7] O
wbs_dat_o[8] O
wbs_dat_o[9] O
wbs_sel_i[0] I
wbs_sel_i[1] I
wbs_sel_i[2] I
wbs_sel_i[3] I
wbs_stb_i I
wbs_we_i I

*D_NET *30 0.442834
*CONN
*P io_in[0] I
*I *344:s1 I *D sky130_osu_ring_oscillator_mpr2ya_8_b0r2
*I *343:s1 I *D sky130_osu_ring_oscillator_mpr2xa_8_b0r2
*I *347:s1 I *D sky130_osu_ring_oscillator_mpr2ct_8_b0r1
*I *337:s1 I *D sky130_osu_ring_oscillator_mpr2aa_8_b0r1
*I *345:s1 I *D sky130_osu_ring_oscillator_mpr2at_8_b0r1
*I *346:s1 I *D sky130_osu_ring_oscillator_mpr2ca_8_b0r1
*I *348:s1 I *D sky130_osu_ring_oscillator_mpr2ea_8_b0r1
*I *349:s1 I *D sky130_osu_ring_oscillator_mpr2et_8_b0r1
*I *350:s1 I *D sky130_osu_ring_oscillator_mpr2xa_8_b0r1
*I *351:s1 I *D sky130_osu_ring_oscillator_mpr2ya_8_b0r1
*I *352:s1 I *D sky130_osu_ring_oscillator_mpr2aa_8_b0r2
*I *338:s1 I *D sky130_osu_ring_oscillator_mpr2at_8_b0r2
*I *339:s1 I *D sky130_osu_ring_oscillator_mpr2ca_8_b0r2
*I *340:s1 I *D sky130_osu_ring_oscillator_mpr2ct_8_b0r2
*I *341:s1 I *D sky130_osu_ring_oscillator_mpr2ea_8_b0r2
*I *342:s1 I *D sky130_osu_ring_oscillator_mpr2et_8_b0r2
*CAP
1 io_in[0] 0.0739818
2 *344:s1 0
3 *343:s1 0.000313853
4 *347:s1 0.000158254
5 *337:s1 0.000554231
6 *345:s1 0
7 *346:s1 0.000197154
8 *348:s1 0.000422919
9 *349:s1 0
10 *350:s1 0
11 *351:s1 0.000379593
12 *352:s1 0.000521985
13 *338:s1 0.00197955
14 *339:s1 0.000250207
15 *340:s1 0.0002452
16 *341:s1 0
17 *342:s1 0
18 *30:322 0.000692338
19 *30:268 0.00333588
20 *30:261 0.000584048
21 *30:253 0.00383647
22 *30:249 0.00493948
23 *30:235 0.00947912
24 *30:233 0.00967612
25 *30:218 0.00773104
26 *30:216 0.00343897
27 *30:207 0.000618984
28 *30:199 0.00306813
29 *30:197 0.00164104
30 *30:195 0.00157415
31 *30:188 0.000434152
32 *30:180 0.00310987
33 *30:172 0.00320193
34 *30:161 0.00567121
35 *30:146 0.00698465
36 *30:144 0.00381236
37 *30:140 0.000876378
38 *30:122 0.00447894
39 *30:120 0.00280746
40 *30:107 0.00189018
41 *30:101 0.00254972
42 *30:95 0.0042267
43 *30:93 0.00442933
44 *30:73 0.00262925
45 *30:71 0.00212989
46 *30:67 0.0020567
47 *30:58 0.000518373
48 *30:50 0.00211132
49 *30:46 0.00340915
50 *30:39 0.00069168
51 *30:31 0.00691984
52 *30:29 0.00333194
53 *30:25 0.000432307
54 *30:23 0.00291769
55 *30:21 0.0034864
56 *30:13 0.00373955
57 *30:9 0.0423531
58 *30:7 0.0398746
59 *30:5 0.0739818
60 *337:s1 *337:start 2.04034e-05
61 *338:s1 *267:11 0
62 *340:s1 *340:start 1.23353e-05
63 *343:s1 *41:31 7.95224e-05
64 *351:s1 *351:start 1.20032e-05
65 *352:s1 *352:start 5.5792e-05
66 *30:9 *344:s5 1.84838e-05
67 *30:9 *62:33 0.000935277
68 *30:13 *41:13 0.00520076
69 *30:13 *41:21 0.00186651
70 *30:21 *41:21 0.000508823
71 *30:23 *41:23 0.00560069
72 *30:23 *41:27 0.000838276
73 *30:23 *41:42 6.89034e-05
74 *30:29 *343:start 6.06279e-05
75 *30:29 *41:31 3.70071e-06
76 *30:31 *41:42 0.000390914
77 *30:31 *52:75 0.00384334
78 *30:39 *342:start 1.42923e-05
79 *30:46 *41:42 2.04774e-05
80 *30:46 *41:69 0.00233163
81 *30:46 *52:75 0.000455418
82 *30:50 *41:69 0.000996568
83 *30:58 *341:start 2.04034e-05
84 *30:67 *41:69 0.00074033
85 *30:67 *41:73 2.04774e-05
86 *30:67 *41:101 0.000754747
87 *30:71 *41:101 0.0022363
88 *30:73 *41:101 0.0017568
89 *30:93 *41:101 0.000130055
90 *30:107 *41:139 0.00422817
91 *30:144 *338:start 3.59051e-05
92 *30:146 *41:169 0.00092104
93 *30:146 *41:196 0.00761352
94 *30:161 *41:196 0.000723226
95 *30:161 *41:224 0.00778941
96 *30:172 *41:224 0.000543512
97 *30:172 *41:252 0.0049821
98 *30:180 *41:252 0.00151127
99 *30:188 *350:start 2.45549e-06
100 *30:195 *41:252 0.000546228
101 *30:195 *41:277 0.000916712
102 *30:195 *41:279 0.00126984
103 *30:199 *41:279 0.0046806
104 *30:207 *349:start 1.23353e-05
105 *30:216 *41:279 0.00100706
106 *30:216 *41:306 0.00108793
107 *30:218 *41:306 0.00135465
108 *30:218 *41:312 0.00265629
109 *30:233 *41:312 0.000285629
110 *30:261 *345:start 9.35569e-05
111 *30:268 *41:398 0.00690129
*RES
1 io_in[0] *30:5 254.236 
2 *30:5 *30:7 8 
3 *30:7 *30:9 903.039 
4 *30:9 *30:13 21.0219 
5 *30:13 *30:21 10.184 
6 *30:21 *30:23 96.8082 
7 *30:23 *30:25 15 
8 *30:25 *30:29 17.5271 
9 *30:29 *30:31 107.196 
10 *30:31 *30:39 29.7227 
11 *30:39 *342:s1 23 
12 *30:31 *30:46 96.4146 
13 *30:46 *30:50 13.7854 
14 *30:50 *30:58 40.818 
15 *30:58 *341:s1 15 
16 *30:50 *30:67 38.7254 
17 *30:67 *30:71 29.3521 
18 *30:71 *30:73 42.8889 
19 *30:73 *340:s1 20.1164 
20 *30:73 *30:93 22.4658 
21 *30:93 *30:95 76.2079 
22 *30:95 *30:101 18.8037 
23 *30:101 *30:107 46.1201 
24 *30:107 *339:s1 9.0024 
25 *30:107 *30:120 8 
26 *30:120 *30:122 64.3179 
27 *30:122 *338:s1 39.1966 
28 *338:s1 *30:140 21.6959 
29 *30:140 *30:144 27.0557 
30 *30:144 *30:146 109.838 
31 *30:146 *352:s1 48.9475 
32 *30:146 *30:161 109.485 
33 *30:161 *351:s1 46.063 
34 *30:161 *30:172 71.0189 
35 *30:172 *30:180 37.7104 
36 *30:180 *30:188 38.8968 
37 *30:188 *350:s1 15 
38 *30:180 *30:195 49.7246 
39 *30:195 *30:197 0.621429 
40 *30:197 *30:199 59.3775 
41 *30:199 *30:207 28.2986 
42 *30:207 *349:s1 23 
43 *30:199 *30:216 27.7675 
44 *30:216 *30:218 84.1932 
45 *30:218 *348:s1 47.3991 
46 *30:218 *30:233 107.372 
47 *30:233 *30:235 108.429 
48 *30:235 *346:s1 19.3034 
49 *30:235 *30:249 100.785 
50 *30:249 *30:253 10.9475 
51 *30:253 *30:261 28.3089 
52 *30:261 *345:s1 23 
53 *30:253 *30:268 96.28 
54 *30:268 *337:s1 49.7139 
55 *30:233 *347:s1 18.7648 
56 *30:25 *343:s1 30.5763 
57 *30:13 *30:322 36.0549 
58 *30:322 *344:s1 15 
*END

*D_NET *41 0.473272
*CONN
*P io_in[1] I
*I *344:s2 I *D sky130_osu_ring_oscillator_mpr2ya_8_b0r2
*I *346:s2 I *D sky130_osu_ring_oscillator_mpr2ca_8_b0r1
*I *345:s2 I *D sky130_osu_ring_oscillator_mpr2at_8_b0r1
*I *337:s2 I *D sky130_osu_ring_oscillator_mpr2aa_8_b0r1
*I *347:s2 I *D sky130_osu_ring_oscillator_mpr2ct_8_b0r1
*I *348:s2 I *D sky130_osu_ring_oscillator_mpr2ea_8_b0r1
*I *349:s2 I *D sky130_osu_ring_oscillator_mpr2et_8_b0r1
*I *350:s2 I *D sky130_osu_ring_oscillator_mpr2xa_8_b0r1
*I *351:s2 I *D sky130_osu_ring_oscillator_mpr2ya_8_b0r1
*I *352:s2 I *D sky130_osu_ring_oscillator_mpr2aa_8_b0r2
*I *338:s2 I *D sky130_osu_ring_oscillator_mpr2at_8_b0r2
*I *339:s2 I *D sky130_osu_ring_oscillator_mpr2ca_8_b0r2
*I *340:s2 I *D sky130_osu_ring_oscillator_mpr2ct_8_b0r2
*I *341:s2 I *D sky130_osu_ring_oscillator_mpr2ea_8_b0r2
*I *342:s2 I *D sky130_osu_ring_oscillator_mpr2et_8_b0r2
*I *343:s2 I *D sky130_osu_ring_oscillator_mpr2xa_8_b0r2
*CAP
1 io_in[1] 0.0654447
2 *344:s2 0.000694403
3 *346:s2 0.000455701
4 *345:s2 0.00233442
5 *337:s2 0.00195703
6 *347:s2 0.00077345
7 *348:s2 0.000300295
8 *349:s2 9.05305e-05
9 *350:s2 0.00144439
10 *351:s2 0.0020175
11 *352:s2 0.00212558
12 *338:s2 0
13 *339:s2 0.000457531
14 *340:s2 7.80219e-05
15 *341:s2 0.00220278
16 *342:s2 0
17 *343:s2 4.15612e-05
18 *41:398 0.004577
19 *41:396 0.00261996
20 *41:394 0.00266629
21 *41:390 0.00590683
22 *41:388 0.00750517
23 *41:382 0.00653581
24 *41:380 0.00455159
25 *41:348 0.00187112
26 *41:340 0.00245715
27 *41:336 0.00279267
28 *41:316 0.00384289
29 *41:312 0.00287026
30 *41:306 0.00311197
31 *41:297 0.00247975
32 *41:279 0.00723589
33 *41:277 0.003362
34 *41:252 0.00506177
35 *41:247 0
36 *41:224 0.00833082
37 *41:196 0.00843109
38 *41:189 0.000659007
39 *41:185 0.00209312
40 *41:169 0.00718688
41 *41:167 0.00384933
42 *41:161 0.00351863
43 *41:141 0.00273479
44 *41:139 0.00207451
45 *41:129 0.00492278
46 *41:117 0.00196493
47 *41:101 0.00841381
48 *41:73 0.00595854
49 *41:69 0.00337118
50 *41:62 0.00177734
51 *41:42 0.00853422
52 *41:31 0.0011835
53 *41:27 0.00524169
54 *41:23 0.00273663
55 *41:21 0.00330521
56 *41:13 0.00934129
57 *41:9 0.0376031
58 *41:7 0.0301617
59 *41:5 0.0654447
60 *347:s2 *277:10 0
61 *41:13 *344:s3 0.0018474
62 *41:13 *52:13 0.00867138
63 *41:31 *343:start 2.93845e-05
64 *41:42 *52:75 0.00820981
65 *41:62 *52:79 0.00324489
66 *41:388 *260:11 0
67 *343:s1 *41:31 7.95224e-05
68 *30:13 *41:13 0.00520076
69 *30:13 *41:21 0.00186651
70 *30:21 *41:21 0.000508823
71 *30:23 *41:23 0.00560069
72 *30:23 *41:27 0.000838276
73 *30:23 *41:42 6.89034e-05
74 *30:29 *41:31 3.70071e-06
75 *30:31 *41:42 0.000390914
76 *30:46 *41:42 2.04774e-05
77 *30:46 *41:69 0.00233163
78 *30:50 *41:69 0.000996568
79 *30:67 *41:69 0.00074033
80 *30:67 *41:73 2.04774e-05
81 *30:67 *41:101 0.000754747
82 *30:71 *41:101 0.0022363
83 *30:73 *41:101 0.0017568
84 *30:93 *41:101 0.000130055
85 *30:107 *41:139 0.00422817
86 *30:146 *41:169 0.00092104
87 *30:146 *41:196 0.00761352
88 *30:161 *41:196 0.000723226
89 *30:161 *41:224 0.00778941
90 *30:172 *41:224 0.000543512
91 *30:172 *41:252 0.0049821
92 *30:180 *41:252 0.00151127
93 *30:195 *41:252 0.000546228
94 *30:195 *41:277 0.000916712
95 *30:195 *41:279 0.00126984
96 *30:199 *41:279 0.0046806
97 *30:216 *41:279 0.00100706
98 *30:216 *41:306 0.00108793
99 *30:218 *41:306 0.00135465
100 *30:218 *41:312 0.00265629
101 *30:233 *41:312 0.000285629
102 *30:268 *41:398 0.00690129
*RES
1 io_in[1] *41:5 224.612 
2 *41:5 *41:7 8 
3 *41:7 *41:9 698.092 
4 *41:9 *41:13 47.2971 
5 *41:13 *41:21 13.7456 
6 *41:21 *41:23 71.9821 
7 *41:23 *41:27 21.0146 
8 *41:27 *41:31 39.4429 
9 *41:31 *343:s2 30.7975 
10 *41:27 *41:42 120.754 
11 *41:42 *41:62 48.6623 
12 *41:62 *342:s2 15 
13 *41:42 *41:69 106.492 
14 *41:69 *41:73 1.94714 
15 *41:73 *341:s2 48.6537 
16 *41:73 *41:101 113.535 
17 *41:101 *41:117 49.7441 
18 *41:117 *340:s2 2.25786 
19 *41:101 *41:129 64.2764 
20 *41:129 *41:139 49.9752 
21 *41:139 *41:141 8 
22 *41:141 *339:s2 21.3734 
23 *41:141 *41:161 52.2621 
24 *41:161 *41:167 20.0059 
25 *41:167 *41:169 62.1221 
26 *41:169 *41:185 43.8059 
27 *41:185 *41:189 29.7279 
28 *41:189 *338:s2 23 
29 *41:169 *41:196 107.196 
30 *41:196 *352:s2 47.268 
31 *41:196 *41:224 107.196 
32 *41:224 *351:s2 45.1345 
33 *351:s2 *41:247 0.225556 
34 *41:224 *41:252 107.196 
35 *41:252 *350:s2 36.6784 
36 *41:252 *41:277 43.5161 
37 *41:277 *41:279 103.147 
38 *41:279 *41:297 48.0468 
39 *41:297 *349:s2 16.9886 
40 *41:279 *41:306 63.8414 
41 *41:306 *41:312 46.9636 
42 *41:312 *41:316 13.6373 
43 *41:316 *348:s2 20.9706 
44 *41:316 *41:336 42.1329 
45 *41:336 *41:340 22.2057 
46 *41:340 *41:348 46.2017 
47 *41:348 *347:s2 23.0061 
48 *347:s2 *41:380 19.5217 
49 *41:380 *41:382 95.2236 
50 *41:382 *41:388 22.5819 
51 *41:388 *41:390 129.029 
52 *41:390 *41:394 9.17227 
53 *41:394 *41:396 8 
54 *41:396 *41:398 92.4064 
55 *41:398 *337:s2 25.6198 
56 *41:394 *345:s2 40.3878 
57 *41:382 *346:s2 24.8911 
58 *41:13 *344:s2 36.699 
*END

*D_NET *52 0.482331
*CONN
*P io_in[2] I
*I *346:s3 I *D sky130_osu_ring_oscillator_mpr2ca_8_b0r1
*I *337:s3 I *D sky130_osu_ring_oscillator_mpr2aa_8_b0r1
*I *345:s3 I *D sky130_osu_ring_oscillator_mpr2at_8_b0r1
*I *347:s3 I *D sky130_osu_ring_oscillator_mpr2ct_8_b0r1
*I *348:s3 I *D sky130_osu_ring_oscillator_mpr2ea_8_b0r1
*I *349:s3 I *D sky130_osu_ring_oscillator_mpr2et_8_b0r1
*I *350:s3 I *D sky130_osu_ring_oscillator_mpr2xa_8_b0r1
*I *351:s3 I *D sky130_osu_ring_oscillator_mpr2ya_8_b0r1
*I *352:s3 I *D sky130_osu_ring_oscillator_mpr2aa_8_b0r2
*I *338:s3 I *D sky130_osu_ring_oscillator_mpr2at_8_b0r2
*I *339:s3 I *D sky130_osu_ring_oscillator_mpr2ca_8_b0r2
*I *340:s3 I *D sky130_osu_ring_oscillator_mpr2ct_8_b0r2
*I *341:s3 I *D sky130_osu_ring_oscillator_mpr2ea_8_b0r2
*I *342:s3 I *D sky130_osu_ring_oscillator_mpr2et_8_b0r2
*I *343:s3 I *D sky130_osu_ring_oscillator_mpr2xa_8_b0r2
*I *344:s3 I *D sky130_osu_ring_oscillator_mpr2ya_8_b0r2
*CAP
1 io_in[2] 0.0561648
2 *346:s3 0.000692473
3 *337:s3 0.00261908
4 *345:s3 0.00227062
5 *347:s3 0.000758422
6 *348:s3 0.00267832
7 *349:s3 7.00143e-05
8 *350:s3 0.00203597
9 *351:s3 0.00208006
10 *352:s3 0.000103364
11 *338:s3 0.00256517
12 *339:s3 0.002194
13 *340:s3 0.000116934
14 *341:s3 0.0026311
15 *342:s3 0.000588715
16 *343:s3 0.000705891
17 *344:s3 0.00229412
18 *52:479 0.00564588
19 *52:477 0.00302681
20 *52:453 0.00338821
21 *52:445 0.00392247
22 *52:443 0.00539568
23 *52:433 0.00381016
24 *52:429 0.00389214
25 *52:427 0.00336525
26 *52:406 0.00269811
27 *52:402 0.00556785
28 *52:400 0.00412233
29 *52:370 0.00317249
30 *52:368 0.00320418
31 *52:358 0.00234216
32 *52:342 0.00599359
33 *52:334 0.00412749
34 *52:332 0.00565956
35 *52:302 0.00408532
36 *52:300 0.00241322
37 *52:272 0.0047966
38 *52:264 0.0033838
39 *52:254 0.00259163
40 *52:236 0.00591754
41 *52:230 0.00357527
42 *52:228 0.00322647
43 *52:204 0.00297874
44 *52:200 0.00324277
45 *52:198 0.00377661
46 *52:169 0.00328848
47 *52:165 0.00308935
48 *52:163 0.00362531
49 *52:156 0
50 *52:145 0.00217886
51 *52:137 0.00634747
52 *52:135 0.00384487
53 *52:109 0.00287346
54 *52:107 0.00479657
55 *52:105 0.00653656
56 *52:79 0.00474794
57 *52:75 0.00387456
58 *52:73 0.00400182
59 *52:45 0.00540085
60 *52:39 0.00511567
61 *52:37 0.0029672
62 *52:13 0.0163064
63 *52:11 0.0140123
64 *52:9 0.0213111
65 *52:7 0.0213111
66 *52:5 0.0561648
67 *338:s3 *314:9 0
68 *339:s3 *339:s4 0.00192317
69 *345:s3 *300:15 0.00034809
70 *346:s3 *292:11 0
71 *348:s3 *348:s4 0
72 *348:s3 *61:335 0
73 *350:s3 *350:s4 0
74 *350:s3 *61:262 0.000653495
75 *351:s3 *296:10 0.000909189
76 *52:39 *61:59 0.00126378
77 *52:39 *62:33 0.00689123
78 *52:39 *62:47 0.000675475
79 *52:39 *62:49 0
80 *52:107 *61:89 0
81 *52:107 *61:93 0
82 *52:107 *62:93 0
83 *52:137 *61:109 0
84 *52:137 *61:117 0
85 *52:137 *62:93 0.00314321
86 *52:137 *62:105 0.00061101
87 *52:137 *62:125 0
88 *52:137 *302:19 0
89 *52:137 *318:15 1.23172e-05
90 *52:145 *340:s4 0.00305485
91 *52:145 *61:117 0.000185837
92 *52:163 *61:145 0
93 *52:165 *61:145 0.00206366
94 *52:165 *61:151 0.00115344
95 *52:165 *317:19 8.21456e-06
96 *52:169 *339:s4 0.000322892
97 *52:169 *61:176 0.000122047
98 *52:169 *62:147 0.000169375
99 *52:198 *335:data_in[9] 0.000360946
100 *52:198 *62:147 0
101 *52:200 *61:178 0.00574734
102 *52:200 *61:200 0.00109666
103 *52:200 *271:18 0.000462075
104 *52:200 *312:18 0
105 *52:200 *331:13 0
106 *52:204 *311:22 5.29092e-05
107 *52:204 *312:22 0.000246311
108 *52:204 *314:9 0
109 *52:230 *61:204 0.00764345
110 *52:230 *62:194 0
111 *52:230 *311:14 0
112 *52:254 *313:18 0.000136562
113 *52:264 *61:256 0.000444069
114 *52:264 *313:18 0.00276221
115 *52:272 *61:256 0.000526493
116 *52:272 *62:214 0.000122125
117 *52:272 *62:216 0.000312517
118 *52:300 *61:256 0.00253671
119 *52:300 *62:216 0.00497708
120 *52:300 *62:220 0.000878677
121 *52:300 *62:242 0.000139908
122 *52:300 *62:244 0
123 *52:332 *61:262 4.89323e-05
124 *52:334 *62:278 0
125 *52:334 *62:280 0.000999143
126 *52:334 *324:13 0
127 *52:342 *61:331 0.000169194
128 *52:342 *294:11 0.000217035
129 *52:342 *310:11 0.000326723
130 *52:358 *294:7 0
131 *52:358 *310:11 0.000939754
132 *52:368 *61:331 0.00395215
133 *52:368 *62:302 3.17684e-05
134 *52:368 *326:17 4.81862e-05
135 *52:400 *62:300 0.000406026
136 *52:400 *62:302 0
137 *52:400 *291:18 0
138 *52:402 *61:361 0.00348189
139 *52:402 *62:302 0
140 *52:402 *62:320 0.000239832
141 *52:402 *291:18 0
142 *52:402 *325:15 5.10626e-06
143 *52:406 *347:s4 0
144 *52:406 *61:365 0
145 *52:406 *260:17 0
146 *52:433 *292:11 0
147 *52:443 *62:320 0
148 *52:443 *62:332 0
149 *52:443 *260:11 0
150 *52:443 *291:18 0
151 *52:443 *292:11 0
152 *52:445 *61:420 0.00679999
153 *52:445 *62:332 0
154 *52:445 *62:336 0
155 *52:445 *62:338 0
156 *52:445 *291:18 0.000559523
157 *52:453 *61:420 0.000582066
158 *52:453 *62:338 7.76909e-05
159 *52:453 *300:15 0.000159155
160 *52:453 *323:12 2.29099e-05
161 *52:479 *337:s4 0.000122849
162 *52:479 *61:443 0.00322582
163 *30:31 *52:75 0.00384334
164 *30:46 *52:75 0.000455418
165 *41:13 *344:s3 0.0018474
166 *41:13 *52:13 0.00867138
167 *41:42 *52:75 0.00820981
168 *41:62 *52:79 0.00324489
*RES
1 io_in[2] *52:5 197.564 
2 *52:5 *52:7 8 
3 *52:7 *52:9 493.145 
4 *52:9 *52:11 8 
5 *52:11 *52:13 56.728 
6 *52:13 *344:s3 44.8463 
7 *52:13 *52:37 8 
8 *52:37 *52:39 105.084 
9 *52:39 *52:45 23.0971 
10 *52:45 *343:s3 29.1693 
11 *52:45 *52:73 27.0896 
12 *52:73 *52:75 104.379 
13 *52:75 *52:79 18.1024 
14 *52:79 *342:s3 34.8286 
15 *52:79 *52:105 13.9808 
16 *52:105 *52:107 109.309 
17 *52:107 *52:109 8 
18 *52:109 *341:s3 41.0097 
19 *52:109 *52:135 8.8288 
20 *52:135 *52:137 112.126 
21 *52:137 *52:145 35.2965 
22 *52:145 *340:s3 17.8016 
23 *340:s3 *52:156 0.225556 
24 *52:137 *52:163 15.3493 
25 *52:163 *52:165 93.7943 
26 *52:165 *52:169 8.8288 
27 *52:169 *339:s3 41.9762 
28 *52:169 *52:198 39.2998 
29 *52:198 *52:200 98.745 
30 *52:200 *52:204 9.77333 
31 *52:204 *338:s3 44.8328 
32 *52:204 *52:228 8 
33 *52:228 *52:230 108.605 
34 *52:230 *52:236 16.9147 
35 *52:236 *52:254 43.7133 
36 *52:254 *352:s3 10.1854 
37 *52:236 *52:264 91.7021 
38 *52:264 *52:272 11.6414 
39 *52:272 *351:s3 46.5985 
40 *52:272 *52:300 109.309 
41 *52:300 *52:302 8 
42 *52:302 *350:s3 37.7586 
43 *52:302 *52:332 38.6972 
44 *52:332 *52:334 86.5236 
45 *52:334 *52:342 22.4875 
46 *52:342 *52:358 44.1158 
47 *52:358 *349:s3 9.48107 
48 *52:342 *52:368 103.675 
49 *52:368 *52:370 8 
50 *52:370 *348:s3 41.7579 
51 *52:370 *52:400 15.6468 
52 *52:400 *52:402 101.231 
53 *52:402 *52:406 14.5819 
54 *52:406 *347:s3 32.908 
55 *52:406 *52:427 8 
56 *52:427 *52:429 77.72 
57 *52:429 *52:433 11.2271 
58 *52:433 *52:443 35.9279 
59 *52:443 *52:445 100.195 
60 *52:445 *52:453 31.7452 
61 *52:453 *345:s3 41.4439 
62 *52:453 *52:477 8 
63 *52:477 *52:479 93.815 
64 *52:479 *337:s3 48.5248 
65 *52:433 *346:s3 30.1939 
*END

*D_NET *61 0.419369
*CONN
*P io_in[3] I
*I *337:s4 I *D sky130_osu_ring_oscillator_mpr2aa_8_b0r1
*I *345:s4 I *D sky130_osu_ring_oscillator_mpr2at_8_b0r1
*I *346:s4 I *D sky130_osu_ring_oscillator_mpr2ca_8_b0r1
*I *347:s4 I *D sky130_osu_ring_oscillator_mpr2ct_8_b0r1
*I *348:s4 I *D sky130_osu_ring_oscillator_mpr2ea_8_b0r1
*I *349:s4 I *D sky130_osu_ring_oscillator_mpr2et_8_b0r1
*I *350:s4 I *D sky130_osu_ring_oscillator_mpr2xa_8_b0r1
*I *351:s4 I *D sky130_osu_ring_oscillator_mpr2ya_8_b0r1
*I *352:s4 I *D sky130_osu_ring_oscillator_mpr2aa_8_b0r2
*I *338:s4 I *D sky130_osu_ring_oscillator_mpr2at_8_b0r2
*I *339:s4 I *D sky130_osu_ring_oscillator_mpr2ca_8_b0r2
*I *340:s4 I *D sky130_osu_ring_oscillator_mpr2ct_8_b0r2
*I *341:s4 I *D sky130_osu_ring_oscillator_mpr2ea_8_b0r2
*I *342:s4 I *D sky130_osu_ring_oscillator_mpr2et_8_b0r2
*I *343:s4 I *D sky130_osu_ring_oscillator_mpr2xa_8_b0r2
*I *344:s4 I *D sky130_osu_ring_oscillator_mpr2ya_8_b0r2
*CAP
1 io_in[3] 0.000922517
2 *337:s4 0.00130751
3 *345:s4 0.00111491
4 *346:s4 0.00162391
5 *347:s4 0.00198222
6 *348:s4 0.000581445
7 *349:s4 0.00208425
8 *350:s4 0.000503997
9 *351:s4 0.0013652
10 *352:s4 0.000361761
11 *338:s4 0.000245546
12 *339:s4 0.00149494
13 *340:s4 0.00179776
14 *341:s4 0.00120704
15 *342:s4 0.00126335
16 *343:s4 0.000168957
17 *344:s4 0.000456597
18 *61:443 0.00399395
19 *61:441 0.00268644
20 *61:424 0.00144475
21 *61:420 0.0020316
22 *61:418 0.00236213
23 *61:391 0.00548973
24 *61:389 0.00320544
25 *61:365 0.00224375
26 *61:361 0.00179215
27 *61:359 0.00280087
28 *61:353 0.0042866
29 *61:351 0.00301636
30 *61:335 0.00155225
31 *61:331 0.00405529
32 *61:329 0.00425732
33 *61:288 0.00308542
34 *61:286 0.00408169
35 *61:262 0.00308995
36 *61:256 0.00537566
37 *61:254 0.00580115
38 *61:232 0.00246894
39 *61:230 0.00329184
40 *61:210 0.00489305
41 *61:204 0.00446153
42 *61:202 0.00322209
43 *61:200 0.000687175
44 *61:182 0.00144587
45 *61:178 0.00315993
46 *61:176 0.00151417
47 *61:153 0.00173667
48 *61:151 0.000793695
49 *61:145 0.00200054
50 *61:143 0.00120684
51 *61:117 0.00340613
52 *61:109 0.0049878
53 *61:107 0.00389937
54 *61:93 0.0022987
55 *61:89 0.00429346
56 *61:87 0.00490919
57 *61:61 0.0062699
58 *61:59 0.00544873
59 *61:51 0.00245717
60 *61:35 0.000996476
61 *61:33 0.00412073
62 *61:31 0.00412073
63 *61:13 0.0738342
64 *61:11 0.0733776
65 *61:9 0.0109009
66 *61:7 0.0118234
67 *337:s4 *300:7 0
68 *337:s4 *316:15 0
69 *341:s4 *303:8 2.81065e-05
70 *341:s4 *319:7 0
71 *345:s4 *62:358 0.000852493
72 *345:s4 *300:15 0.000401601
73 *349:s4 *349:s5 0
74 *349:s4 *263:10 0
75 *349:s4 *311:12 0
76 *351:s4 *313:16 0
77 *61:9 *62:9 0.00522566
78 *61:13 *62:13 0
79 *61:33 *305:7 0.00101375
80 *61:51 *343:s5 0.000502646
81 *61:59 *62:49 0
82 *61:61 *62:57 0
83 *61:61 *256:14 0
84 *61:87 *62:71 0
85 *61:87 *256:14 0
86 *61:107 *62:93 0.000688334
87 *61:109 *62:93 0
88 *61:109 *271:18 0
89 *61:117 *271:18 0
90 *61:117 *302:19 0.00138348
91 *61:145 *62:125 0.00261538
92 *61:151 *62:125 0.00238395
93 *61:151 *62:147 0.000995238
94 *61:151 *317:19 2.31116e-05
95 *61:176 *62:147 0.000306344
96 *61:178 *271:18 0.00685479
97 *61:182 *299:15 0.000338552
98 *61:200 *271:18 0.00110681
99 *61:204 *311:14 0
100 *61:204 *311:20 0
101 *61:210 *313:22 0.000436784
102 *61:256 *62:194 0.000653593
103 *61:256 *313:18 0.000609959
104 *61:262 *62:242 2.98092e-05
105 *61:288 *295:8 0
106 *61:329 *294:11 0.000190493
107 *61:329 *310:11 0.000288628
108 *61:331 *326:17 5.08188e-05
109 *61:361 *62:320 0
110 *61:361 *291:18 0
111 *61:391 *62:320 0
112 *61:391 *62:332 0