*SPEF "ieee 1481-1999"
*DESIGN "user_project_wrapper"
*DATE "11:11:11 Fri 11 11, 1111"
*VENDOR "OpenRCX"
*PROGRAM "Parallel Extraction"
*VERSION "1.0"
*DESIGN_FLOW "NAME_SCOPE LOCAL" "PIN_CAP NONE"
*DIVIDER /
*DELIMITER :
*BUS_DELIMITER []
*T_UNIT 1 NS
*C_UNIT 1 PF
*R_UNIT 1 OHM
*L_UNIT 1 HENRY

*NAME_MAP
*1 analog_io[0]
*2 analog_io[10]
*3 analog_io[11]
*4 analog_io[12]
*5 analog_io[13]
*6 analog_io[14]
*7 analog_io[15]
*8 analog_io[16]
*9 analog_io[17]
*10 analog_io[18]
*11 analog_io[19]
*12 analog_io[1]
*13 analog_io[20]
*14 analog_io[21]
*15 analog_io[22]
*16 analog_io[23]
*17 analog_io[24]
*18 analog_io[25]
*19 analog_io[26]
*20 analog_io[27]
*21 analog_io[28]
*22 analog_io[2]
*23 analog_io[3]
*24 analog_io[4]
*25 analog_io[5]
*26 analog_io[6]
*27 analog_io[7]
*28 analog_io[8]
*29 analog_io[9]
*30 io_in[0]
*31 io_in[10]
*32 io_in[11]
*33 io_in[12]
*34 io_in[13]
*35 io_in[14]
*36 io_in[15]
*37 io_in[16]
*38 io_in[17]
*39 io_in[18]
*40 io_in[19]
*41 io_in[1]
*42 io_in[20]
*43 io_in[21]
*44 io_in[22]
*45 io_in[23]
*46 io_in[24]
*47 io_in[25]
*48 io_in[26]
*49 io_in[27]
*50 io_in[28]
*51 io_in[29]
*52 io_in[2]
*53 io_in[30]
*54 io_in[31]
*55 io_in[32]
*56 io_in[33]
*57 io_in[34]
*58 io_in[35]
*59 io_in[36]
*60 io_in[37]
*61 io_in[3]
*62 io_in[4]
*63 io_in[5]
*64 io_in[6]
*65 io_in[7]
*66 io_in[8]
*67 io_in[9]
*68 io_oeb[0]
*69 io_oeb[10]
*70 io_oeb[11]
*71 io_oeb[12]
*72 io_oeb[13]
*73 io_oeb[14]
*74 io_oeb[15]
*75 io_oeb[16]
*76 io_oeb[17]
*77 io_oeb[18]
*78 io_oeb[19]
*79 io_oeb[1]
*80 io_oeb[20]
*81 io_oeb[21]
*82 io_oeb[22]
*83 io_oeb[23]
*84 io_oeb[24]
*85 io_oeb[25]
*86 io_oeb[26]
*87 io_oeb[27]
*88 io_oeb[28]
*89 io_oeb[29]
*90 io_oeb[2]
*91 io_oeb[30]
*92 io_oeb[31]
*93 io_oeb[32]
*94 io_oeb[33]
*95 io_oeb[34]
*96 io_oeb[35]
*97 io_oeb[36]
*98 io_oeb[37]
*99 io_oeb[3]
*100 io_oeb[4]
*101 io_oeb[5]
*102 io_oeb[6]
*103 io_oeb[7]
*104 io_oeb[8]
*105 io_oeb[9]
*106 io_out[0]
*107 io_out[10]
*108 io_out[11]
*109 io_out[12]
*110 io_out[13]
*111 io_out[14]
*112 io_out[15]
*113 io_out[16]
*114 io_out[17]
*115 io_out[18]
*116 io_out[19]
*117 io_out[1]
*118 io_out[20]
*119 io_out[21]
*120 io_out[22]
*121 io_out[23]
*122 io_out[24]
*123 io_out[25]
*124 io_out[26]
*125 io_out[27]
*126 io_out[28]
*127 io_out[29]
*128 io_out[2]
*129 io_out[30]
*130 io_out[31]
*131 io_out[32]
*132 io_out[33]
*133 io_out[34]
*134 io_out[35]
*135 io_out[36]
*136 io_out[37]
*137 io_out[3]
*138 io_out[4]
*139 io_out[5]
*140 io_out[6]
*141 io_out[7]
*142 io_out[8]
*143 io_out[9]
*146 wb_clk_i
*147 wb_rst_i
*148 wbs_ack_o
*149 wbs_adr_i[0]
*150 wbs_adr_i[10]
*151 wbs_adr_i[11]
*152 wbs_adr_i[12]
*153 wbs_adr_i[13]
*154 wbs_adr_i[14]
*155 wbs_adr_i[15]
*156 wbs_adr_i[16]
*157 wbs_adr_i[17]
*158 wbs_adr_i[18]
*159 wbs_adr_i[19]
*160 wbs_adr_i[1]
*161 wbs_adr_i[20]
*162 wbs_adr_i[21]
*163 wbs_adr_i[22]
*164 wbs_adr_i[23]
*165 wbs_adr_i[24]
*166 wbs_adr_i[25]
*167 wbs_adr_i[26]
*168 wbs_adr_i[27]
*169 wbs_adr_i[28]
*170 wbs_adr_i[29]
*171 wbs_adr_i[2]
*172 wbs_adr_i[30]
*173 wbs_adr_i[31]
*174 wbs_adr_i[3]
*175 wbs_adr_i[4]
*176 wbs_adr_i[5]
*177 wbs_adr_i[6]
*178 wbs_adr_i[7]
*179 wbs_adr_i[8]
*180 wbs_adr_i[9]
*181 wbs_cyc_i
*182 wbs_dat_i[0]
*183 wbs_dat_i[10]
*184 wbs_dat_i[11]
*185 wbs_dat_i[12]
*186 wbs_dat_i[13]
*187 wbs_dat_i[14]
*188 wbs_dat_i[15]
*189 wbs_dat_i[16]
*190 wbs_dat_i[17]
*191 wbs_dat_i[18]
*192 wbs_dat_i[19]
*193 wbs_dat_i[1]
*194 wbs_dat_i[20]
*195 wbs_dat_i[21]
*196 wbs_dat_i[22]
*197 wbs_dat_i[23]
*198 wbs_dat_i[24]
*199 wbs_dat_i[25]
*200 wbs_dat_i[26]
*201 wbs_dat_i[27]
*202 wbs_dat_i[28]
*203 wbs_dat_i[29]
*204 wbs_dat_i[2]
*205 wbs_dat_i[30]
*206 wbs_dat_i[31]
*207 wbs_dat_i[3]
*208 wbs_dat_i[4]
*209 wbs_dat_i[5]
*210 wbs_dat_i[6]
*211 wbs_dat_i[7]
*212 wbs_dat_i[8]
*213 wbs_dat_i[9]
*214 wbs_dat_o[0]
*215 wbs_dat_o[10]
*216 wbs_dat_o[11]
*217 wbs_dat_o[12]
*218 wbs_dat_o[13]
*219 wbs_dat_o[14]
*220 wbs_dat_o[15]
*221 wbs_dat_o[16]
*222 wbs_dat_o[17]
*223 wbs_dat_o[18]
*224 wbs_dat_o[19]
*225 wbs_dat_o[1]
*226 wbs_dat_o[20]
*227 wbs_dat_o[21]
*228 wbs_dat_o[22]
*229 wbs_dat_o[23]
*230 wbs_dat_o[24]
*231 wbs_dat_o[25]
*232 wbs_dat_o[26]
*233 wbs_dat_o[27]
*234 wbs_dat_o[28]
*235 wbs_dat_o[29]
*236 wbs_dat_o[2]
*237 wbs_dat_o[30]
*238 wbs_dat_o[31]
*239 wbs_dat_o[3]
*240 wbs_dat_o[4]
*241 wbs_dat_o[5]
*242 wbs_dat_o[6]
*243 wbs_dat_o[7]
*244 wbs_dat_o[8]
*245 wbs_dat_o[9]
*246 wbs_sel_i[0]
*247 wbs_sel_i[1]
*248 wbs_sel_i[2]
*249 wbs_sel_i[3]
*250 wbs_stb_i
*251 wbs_we_i
*252 x1\[0\]
*253 x1\[10\]
*254 x1\[11\]
*255 x1\[12\]
*256 x1\[13\]
*257 x1\[14\]
*258 x1\[15\]
*259 x1\[1\]
*260 x1\[2\]
*261 x1\[3\]
*262 x1\[4\]
*263 x1\[5\]
*264 x1\[6\]
*265 x1\[7\]
*266 x1\[8\]
*267 x1\[9\]
*268 x2\[0\]
*269 x2\[10\]
*270 x2\[11\]
*271 x2\[12\]
*272 x2\[13\]
*273 x2\[14\]
*274 x2\[15\]
*275 x2\[1\]
*276 x2\[2\]
*277 x2\[3\]
*278 x2\[4\]
*279 x2\[5\]
*280 x2\[6\]
*281 x2\[7\]
*282 x2\[8\]
*283 x2\[9\]
*284 x3\[0\]
*285 x3\[10\]
*286 x3\[11\]
*287 x3\[12\]
*288 x3\[13\]
*289 x3\[14\]
*290 x3\[15\]
*291 x3\[1\]
*292 x3\[2\]
*293 x3\[3\]
*294 x3\[4\]
*295 x3\[5\]
*296 x3\[6\]
*297 x3\[7\]
*298 x3\[8\]
*299 x3\[9\]
*300 x4\[0\]
*301 x4\[10\]
*302 x4\[11\]
*303 x4\[12\]
*304 x4\[13\]
*305 x4\[14\]
*306 x4\[15\]
*307 x4\[1\]
*308 x4\[2\]
*309 x4\[3\]
*310 x4\[4\]
*311 x4\[5\]
*312 x4\[6\]
*313 x4\[7\]
*314 x4\[8\]
*315 x4\[9\]
*316 x5\[0\]
*317 x5\[10\]
*318 x5\[11\]
*319 x5\[12\]
*320 x5\[13\]
*321 x5\[14\]
*322 x5\[15\]
*323 x5\[1\]
*324 x5\[2\]
*325 x5\[3\]
*326 x5\[4\]
*327 x5\[5\]
*328 x5\[6\]
*329 x5\[7\]
*330 x5\[8\]
*331 x5\[9\]
*332 mprj1
*333 mprj2
*334 mprj3
*335 mprj4
*336 mprj5
*337 ro1
*338 ro5
*339 ro7

*PORTS
analog_io[0] I
analog_io[10] I
analog_io[11] I
analog_io[12] I
analog_io[13] I
analog_io[14] I
analog_io[15] I
analog_io[16] I
analog_io[17] I
analog_io[18] I
analog_io[19] I
analog_io[1] I
analog_io[20] I
analog_io[21] I
analog_io[22] I
analog_io[23] I
analog_io[24] I
analog_io[25] I
analog_io[26] I
analog_io[27] I
analog_io[28] I
analog_io[2] I
analog_io[3] I
analog_io[4] I
analog_io[5] I
analog_io[6] I
analog_io[7] I
analog_io[8] I
analog_io[9] I
io_in[0] I
io_in[10] I
io_in[11] I
io_in[12] I
io_in[13] I
io_in[14] I
io_in[15] I
io_in[16] I
io_in[17] I
io_in[18] I
io_in[19] I
io_in[1] I
io_in[20] I
io_in[21] I
io_in[22] I
io_in[23] I
io_in[24] I
io_in[25] I
io_in[26] I
io_in[27] I
io_in[28] I
io_in[29] I
io_in[2] I
io_in[30] I
io_in[31] I
io_in[32] I
io_in[33] I
io_in[34] I
io_in[35] I
io_in[36] I
io_in[37] I
io_in[3] I
io_in[4] I
io_in[5] I
io_in[6] I
io_in[7] I
io_in[8] I
io_in[9] I
io_oeb[0] O
io_oeb[10] O
io_oeb[11] O
io_oeb[12] O
io_oeb[13] O
io_oeb[14] O
io_oeb[15] O
io_oeb[16] O
io_oeb[17] O
io_oeb[18] O
io_oeb[19] O
io_oeb[1] O
io_oeb[20] O
io_oeb[21] O
io_oeb[22] O
io_oeb[23] O
io_oeb[24] O
io_oeb[25] O
io_oeb[26] O
io_oeb[27] O
io_oeb[28] O
io_oeb[29] O
io_oeb[2] O
io_oeb[30] O
io_oeb[31] O
io_oeb[32] O
io_oeb[33] O
io_oeb[34] O
io_oeb[35] O
io_oeb[36] O
io_oeb[37] O
io_oeb[3] O
io_oeb[4] O
io_oeb[5] O
io_oeb[6] O
io_oeb[7] O
io_oeb[8] O
io_oeb[9] O
io_out[0] O
io_out[10] O
io_out[11] O
io_out[12] O
io_out[13] O
io_out[14] O
io_out[15] O
io_out[16] O
io_out[17] O
io_out[18] O
io_out[19] O
io_out[1] O
io_out[20] O
io_out[21] O
io_out[22] O
io_out[23] O
io_out[24] O
io_out[25] O
io_out[26] O
io_out[27] O
io_out[28] O
io_out[29] O
io_out[2] O
io_out[30] O
io_out[31] O
io_out[32] O
io_out[33] O
io_out[34] O
io_out[35] O
io_out[36] O
io_out[37] O
io_out[3] O
io_out[4] O
io_out[5] O
io_out[6] O
io_out[7] O
io_out[8] O
io_out[9] O
wb_clk_i I
wb_rst_i I
wbs_ack_o O
wbs_adr_i[0] I
wbs_adr_i[10] I
wbs_adr_i[11] I
wbs_adr_i[12] I
wbs_adr_i[13] I
wbs_adr_i[14] I
wbs_adr_i[15] I
wbs_adr_i[16] I
wbs_adr_i[17] I
wbs_adr_i[18] I
wbs_adr_i[19] I
wbs_adr_i[1] I
wbs_adr_i[20] I
wbs_adr_i[21] I
wbs_adr_i[22] I
wbs_adr_i[23] I
wbs_adr_i[24] I
wbs_adr_i[25] I
wbs_adr_i[26] I
wbs_adr_i[27] I
wbs_adr_i[28] I
wbs_adr_i[29] I
wbs_adr_i[2] I
wbs_adr_i[30] I
wbs_adr_i[31] I
wbs_adr_i[3] I
wbs_adr_i[4] I
wbs_adr_i[5] I
wbs_adr_i[6] I
wbs_adr_i[7] I
wbs_adr_i[8] I
wbs_adr_i[9] I
wbs_cyc_i I
wbs_dat_i[0] I
wbs_dat_i[10] I
wbs_dat_i[11] I
wbs_dat_i[12] I
wbs_dat_i[13] I
wbs_dat_i[14] I
wbs_dat_i[15] I
wbs_dat_i[16] I
wbs_dat_i[17] I
wbs_dat_i[18] I
wbs_dat_i[19] I
wbs_dat_i[1] I
wbs_dat_i[20] I
wbs_dat_i[21] I
wbs_dat_i[22] I
wbs_dat_i[23] I
wbs_dat_i[24] I
wbs_dat_i[25] I
wbs_dat_i[26] I
wbs_dat_i[27] I
wbs_dat_i[28] I
wbs_dat_i[29] I
wbs_dat_i[2] I
wbs_dat_i[30] I
wbs_dat_i[31] I
wbs_dat_i[3] I
wbs_dat_i[4] I
wbs_dat_i[5] I
wbs_dat_i[6] I
wbs_dat_i[7] I
wbs_dat_i[8] I
wbs_dat_i[9] I
wbs_dat_o[0] O
wbs_dat_o[10] O
wbs_dat_o[11] O
wbs_dat_o[12] O
wbs_dat_o[13] O
wbs_dat_o[14] O
wbs_dat_o[15] O
wbs_dat_o[16] O
wbs_dat_o[17] O
wbs_dat_o[18] O
wbs_dat_o[19] O
wbs_dat_o[1] O
wbs_dat_o[20] O
wbs_dat_o[21] O
wbs_dat_o[22] O
wbs_dat_o[23] O
wbs_dat_o[24] O
wbs_dat_o[25] O
wbs_dat_o[26] O
wbs_dat_o[27] O
wbs_dat_o[28] O
wbs_dat_o[29] O
wbs_dat_o[2] O
wbs_dat_o[30] O
wbs_dat_o[31] O
wbs_dat_o[3] O
wbs_dat_o[4] O
wbs_dat_o[5] O
wbs_dat_o[6] O
wbs_dat_o[7] O
wbs_dat_o[8] O
wbs_dat_o[9] O
wbs_sel_i[0] I
wbs_sel_i[1] I
wbs_sel_i[2] I
wbs_sel_i[3] I
wbs_stb_i I
wbs_we_i I

*D_NET *30 0.458959
*CONN
*P io_in[0] I
*I *337:s1 I *D sky130_osu_ring_oscillator_mpr2aa_8_b0r1
*I *338:s1 I *D sky130_osu_ring_oscillator_mpr2ea_8_b0r1
*I *339:s1 I *D sky130_osu_ring_oscillator_mpr2xa_8_b0r1
*CAP
1 io_in[0] 0.0181291
2 *337:s1 0
3 *338:s1 0.000496986
4 *339:s1 0
5 *30:59 0.000698327
6 *30:55 0.0184086
7 *30:53 0.0185206
8 *30:32 0.0101994
9 *30:25 0.000959537
10 *30:15 0.0098516
11 *30:13 0.0510434
12 *30:11 0.0510434
13 *30:9 0.0544888
14 *30:7 0.0544888
15 *30:5 0.0181291
16 *338:s1 *338:start 3.41524e-05
17 *30:9 *41:9 0.131553
18 *30:9 *61:9 0.000229774
19 *30:9 *280:20 0
20 *30:13 *41:13 0
21 *30:13 *61:13 0.0186791
22 *30:13 *61:17 0.000741593
23 *30:13 *61:27 0.000919825
24 *30:25 *339:start 0.000147656
25 *30:59 *337:start 0.000195985
*RES
1 io_in[0] *30:5 62.3243 
2 *30:5 *30:7 8 
3 *30:7 *30:9 1881.29 
4 *30:9 *30:11 8 
5 *30:11 *30:13 207.081 
6 *30:13 *30:15 8 
7 *30:15 *30:25 37.2368 
8 *30:25 *339:s1 23 
9 *30:15 *30:32 205.62 
10 *30:32 *338:s1 49.4861 
11 *30:32 *30:53 28.676 
12 *30:53 *30:55 410.215 
13 *30:55 *30:59 31.442 
14 *30:59 *337:s1 23 
*END

*D_NET *41 0.560439
*CONN
*P io_in[1] I
*I *337:s2 I *D sky130_osu_ring_oscillator_mpr2aa_8_b0r1
*I *338:s2 I *D sky130_osu_ring_oscillator_mpr2ea_8_b0r1
*I *339:s2 I *D sky130_osu_ring_oscillator_mpr2xa_8_b0r1
*CAP
1 io_in[1] 0.0181212
2 *337:s2 4.89978e-05
3 *338:s2 0.00154442
4 *339:s2 0.00053071
5 *41:82 0.0043469
6 *41:80 0.00436303
7 *41:78 0.0108615
8 *41:76 0.0108875
9 *41:74 0.00289849
10 *41:72 0.0030551
11 *41:37 0.00895909
12 *41:15 0.00819311
13 *41:13 0.0381326
14 *41:11 0.0381326
15 *41:9 0.022547
16 *41:7 0.022547
17 *41:5 0.0181212
18 *338:s2 *278:6 0
19 *41:9 *52:9 0.00850546
20 *41:9 *61:9 0.0990281
21 *41:13 *339:s3 0.000497207
22 *41:13 *52:13 0.107565
23 *41:37 *278:6 0
24 *41:82 *268:8 0
25 *30:9 *41:9 0.131553
26 *30:13 *41:13 0
*RES
1 io_in[1] *41:5 62.2384 
2 *41:5 *41:7 8 
3 *41:7 *41:9 1670.01 
4 *41:9 *41:11 8 
5 *41:11 *41:13 201.07 
6 *41:13 *41:15 8 
7 *41:15 *339:s2 41.5948 
8 *41:15 *41:37 177.231 
9 *41:37 *338:s2 29.9114 
10 *338:s2 *41:72 19.2006 
11 *41:72 *41:74 64.5871 
12 *41:74 *41:76 1.09786 
13 *41:76 *41:78 250.27 
14 *41:78 *41:80 1.57429 
15 *41:80 *41:82 100.195 
16 *41:82 *337:s2 1.19107 
*END

*D_NET *52 0.462098
*CONN
*P io_in[2] I
*I *337:s3 I *D sky130_osu_ring_oscillator_mpr2aa_8_b0r1
*I *338:s3 I *D sky130_osu_ring_oscillator_mpr2ea_8_b0r1
*I *339:s3 I *D sky130_osu_ring_oscillator_mpr2xa_8_b0r1
*CAP
1 io_in[2] 0.0176508
2 *337:s3 0.000192043
3 *338:s3 0.00159304
4 *339:s3 0.00050982
5 *52:62 0.0178447
6 *52:60 0.0179158
7 *52:35 0.0090428
8 *52:33 0.00771287
9 *52:13 0.0377668
10 *52:11 0.037257
11 *52:9 0.0403091
12 *52:7 0.0403091
13 *52:5 0.0176508
14 *338:s3 *294:8 0
15 *52:9 *61:9 0.0989743
16 *52:62 *284:8 0.000801669
17 *41:9 *52:9 0.00850546
18 *41:13 *339:s3 0.000497207
19 *41:13 *52:13 0.107565
*RES
1 io_in[2] *52:5 62.0667 
2 *52:5 *52:7 8 
3 *52:7 *52:9 1462.95 
4 *52:9 *52:11 8 
5 *52:11 *52:13 198.065 
6 *52:13 *339:s3 46.32 
7 *52:13 *52:33 8 
8 *52:33 *52:35 177.936 
9 *52:35 *338:s3 30.5795 
10 *338:s3 *52:60 18.435 
11 *52:60 *52:62 414.969 
12 *52:62 *337:s3 18.8736 
*END

*D_NET *61 0.441178
*CONN
*P io_in[3] I
*I *337:s4 I *D sky130_osu_ring_oscillator_mpr2aa_8_b0r1
*I *338:s4 I *D sky130_osu_ring_oscillator_mpr2ea_8_b0r1
*I *339:s4 I *D sky130_osu_ring_oscillator_mpr2xa_8_b0r1
*CAP
1 io_in[3] 0.0181252
2 *337:s4 0.001249
3 *338:s4 0.00178604
4 *339:s4 9.20976e-05
5 *61:69 0.0185481
6 *61:67 0.0176293
7 *61:39 0.0113301
8 *61:37 0.00921392
9 *61:27 0.00185995
10 *61:17 0.00255791
11 *61:13 0.0467352
12 *61:11 0.0459451
13 *61:9 0.0144911
14 *61:7 0.0144911
15 *61:5 0.0181252
16 *337:s4 *300:8 3.185e-05
17 *61:39 *62:64 0.00039425
18 *61:39 *268:14 0
19 *61:67 *268:14 0
20 *61:69 *268:14 0
21 *30:9 *61:9 0.000229774
22 *30:13 *61:13 0.0186791
23 *30:13 *61:17 0.000741593
24 *30:13 *61:27 0.000919825
25 *41:9 *61:9 0.0990281
26 *52:9 *61:9 0.0989743
*RES
1 io_in[3] *61:5 62.1525 
2 *61:5 *61:7 8 
3 *61:7 *61:9 1266.45 
4 *61:9 *61:11 8 
5 *61:11 *61:13 187.632 
6 *61:13 *61:17 4.0152 
7 *61:17 *61:27 41.6262 
8 *61:27 *339:s4 17.0093 
9 *61:17 *61:37 8 
10 *61:37 *61:39 212.839 
11 *61:39 *338:s4 45.7823 
12 *61:39 *61:67 7.43643 
13 *61:67 *61:69 400.345 
14 *61:69 *337:s4 41.4677 
*END

*D_NET *62 0.299411
*CONN
*P io_in[4] I
*I *337:s5 I *D sky130_osu_ring_oscillator_mpr2aa_8_b0r1
*I *338:s5 I *D sky130_osu_ring_oscillator_mpr2ea_8_b0r1
*I *339:s5 I *D sky130_osu_ring_oscillator_mpr2xa_8_b0r1
*CAP
1 io_in[4] 0.0740651
2 *337:s5 5.45167e-05
3 *338:s5 0.00126784
4 *339:s5 0.000943793
5 *62:72 0.0151785
6 *62:70 0.015216
7 *62:68 0.00288984
8 *62:66 0.00279782
9 *62:64 0.000805036
10 *62:40 0.00956313
11 *62:38 0.00974668
12 *62:9 0.0463604
13 *62:7 0.0460629
14 *62:5 0.0740651
15 *339:s5 *328:9 0
16 *62:64 *268:14 0
17 *61:39 *62:64 0.00039425
*RES
1 io_in[4] *62:5 254.236 
2 *62:5 *62:7 8 
3 *62:7 *62:9 1039.14 
4 *62:9 *339:s5 21.4318 
5 *339:s5 *62:38 40.9061 
6 *62:38 *62:40 208.438 
7 *62:40 *338:s5 10.2898 
8 *338:s5 *62:64 47.9955 
9 *62:64 *62:66 15 
10 *62:66 *62:68 62.6504 
11 *62:68 *62:70 1.09786 
12 *62:70 *62:72 350.32 
13 *62:72 *337:s5 1.22732 
*END

*D_NET *63 0.274176
*CONN
*P io_in[5] I
*I *337:start I *D sky130_osu_ring_oscillator_mpr2aa_8_b0r1
*I *338:start I *D sky130_osu_ring_oscillator_mpr2ea_8_b0r1
*I *339:start I *D sky130_osu_ring_oscillator_mpr2xa_8_b0r1
*CAP
1 io_in[5] 0.00121948
2 *337:start 0.000667098
3 *338:start 0.000650245
4 *339:start 0.000663372
5 *63:41 0.018859
6 *63:36 0
7 *63:29 0.028208
8 *63:17 0.0458675
9 *63:15 0.0358384
10 *63:13 0.070303
11 *63:11 0.0715225
12 *338:s1 *338:start 3.41524e-05
13 *30:25 *339:start 0.000147656
14 *30:59 *337:start 0.000195985
*RES
1 io_in[5] *63:11 32.8218 
2 *63:11 *63:13 1489.94 
3 *63:13 *63:15 15 
4 *63:15 *63:17 831.202 
5 *63:17 *339:start 30.4114 
6 *63:17 *63:29 216.713 
7 *63:29 *338:start 29.4379 
8 *338:start *63:36 0.213684 
9 *63:29 *63:41 421.66 
10 *63:41 *337:start 30.4373 
*END

*D_NET *64 0.122611
*CONN
*P io_in[6] I
*I *335:select[0] I *D mux16x1_project
*I *334:select[0] I *D mux16x1_project
*I *333:select[0] I *D mux16x1_project
*I *332:select[0] I *D mux16x1_project
*I *336:select[0] I *D mux16x1_project
*CAP
1 io_in[6] 0.0151103
2 *335:select[0] 7.66452e-05
3 *334:select[0] 7.66452e-05
4 *333:select[0] 9.22161e-05
5 *332:select[0] 0.00050083
6 *336:select[0] 0.000494982
7 *64:79 0.00869712
8 *64:77 0.00918972
9 *64:69 0.00162842
10 *64:57 0.00364441
11 *64:55 0.00333476
12 *64:49 0.00428995
13 *64:47 0.00422331
14 *64:45 0.00363587
15 *64:43 0.00363088
16 *64:41 0.00387257
17 *64:39 0.00393334
18 *64:37 0.00521474
19 *64:35 0.00550084
20 *64:29 0.00291792
21 *64:27 0.00352716
22 *64:15 0.00378254
23 *64:9 0.00648882
24 *64:7 0.00416556
25 *64:5 0.0151103
26 *332:select[0] *65:87 0
27 *64:9 *336:select[3] 0
28 *64:15 *336:select[1] 0
29 *64:41 *65:47 0
30 *64:45 *65:47 0.00496746
31 *64:49 *65:47 0
32 *64:49 *65:63 0
33 *64:57 *65:63 0.00297352
34 *64:57 *65:67 0.00086885
35 *64:69 *65:67 0.000376699
36 *64:77 *333:select[1] 0
37 *64:77 *65:67 0
38 *64:77 *65:71 4.99967e-05
39 *64:77 *65:87 0.000234545
*RES
1 io_in[6] *64:5 52.0203 
2 *64:5 *64:7 8 
3 *64:7 *64:9 93.815 
4 *64:9 *64:15 23.6981 
5 *64:15 *336:select[0] 11.5171 
6 *64:15 *64:27 21.9157 
7 *64:27 *64:29 57.8757 
8 *64:29 *64:35 16.9147 
9 *64:35 *64:37 119.169 
10 *64:37 *64:39 1.57429 
11 *64:39 *64:41 87.8079 
12 *64:41 *64:43 2.05071 
13 *64:43 *64:45 120.246 
14 *64:45 *64:47 2.05071 
15 *64:47 *64:49 93.815 
16 *64:49 *64:55 16.7429 
17 *64:55 *64:57 102.795 
18 *64:57 *64:69 44.6554 
19 *64:69 *64:77 32.9833 
20 *64:77 *64:79 188.717 
21 *64:79 *332:select[0] 39.8289 
22 *64:69 *333:select[0] 2.21643 
23 *64:47 *334:select[0] 1.74 
24 *64:39 *335:select[0] 1.74 
*END

*D_NET *65 0.129518
*CONN
*P io_in[7] I
*I *335:select[1] I *D mux16x1_project
*I *332:select[1] I *D mux16x1_project
*I *333:select[1] I *D mux16x1_project
*I *334:select[1] I *D mux16x1_project
*I *336:select[1] I *D mux16x1_project
*CAP
1 io_in[7] 0.0017551
2 *335:select[1] 0.000588974
3 *332:select[1] 0.00143118
4 *333:select[1] 0.00146912
5 *334:select[1] 0.00153512
6 *336:select[1] 0.00230618
7 *65:87 0.0103171
8 *65:71 0.0104459
9 *65:67 0.00176914
10 *65:65 0.00170392
11 *65:63 0.00577207
12 *65:47 0.0145441
13 *65:45 0.00836628
14 *65:41 0.00404717
15 *65:19 0.0108005
16 *65:17 0.0086775
17 *65:13 0.0161617
18 *65:11 0.0153791
19 *336:select[1] *336:select[2] 0.00151089
20 *336:select[1] *336:select[3] 0.000231893
21 *65:19 *67:75 0
22 *65:19 *106:9 0
23 *65:19 *106:19 0
24 *65:41 *335:select[2] 0.00031594
25 *65:41 *66:33 0.000136994
26 *65:41 *106:19 0.000781028
27 *332:select[0] *65:87 0
28 *64:15 *336:select[1] 0
29 *64:41 *65:47 0
30 *64:45 *65:47 0.00496746
31 *64:49 *65:47 0
32 *64:49 *65:63 0
33 *64:57 *65:63 0.00297352
34 *64:57 *65:67 0.00086885
35 *64:69 *65:67 0.000376699
36 *64:77 *333:select[1] 0
37 *64:77 *65:67 0
38 *64:77 *65:71 4.99967e-05
39 *64:77 *65:87 0.000234545
*RES
1 io_in[7] *65:11 37.6186 
2 *65:11 *65:13 47.0251 
3 *65:13 *65:17 8.65707 
4 *65:17 *65:19 195.936 
5 *65:19 *336:select[1] 38.4106 
6 *65:13 *65:41 33.6173 
7 *65:41 *65:45 11.2331 
8 *65:45 *65:47 205.796 
9 *65:47 *334:select[1] 29.4629 
10 *65:47 *65:63 156.041 
11 *65:63 *65:65 0.621429 
12 *65:65 *65:67 50.17 
13 *65:67 *65:71 2.38214 
14 *65:71 *333:select[1] 29.2053 
15 *65:71 *65:87 207.205 
16 *65:87 *332:select[1] 29.2053 
17 *65:41 *335:select[1] 21.7543 
*END

*D_NET *66 0.119872
*CONN
*P io_in[8] I
*I *332:select[2] I *D mux16x1_project
*I *333:select[2] I *D mux16x1_project
*I *336:select[2] I *D mux16x1_project
*I *335:select[2] I *D mux16x1_project
*I *334:select[2] I *D mux16x1_project
*CAP
1 io_in[8] 0.0143503
2 *332:select[2] 0.00171091
3 *333:select[2] 0.00160584
4 *336:select[2] 0.00122111
5 *335:select[2] 0.00123344
6 *334:select[2] 0.00174889
7 *66:85 0.0106437
8 *66:83 0.00893277
9 *66:69 0.00172611
10 *66:65 0.00726902
11 *66:49 0.00984437
12 *66:47 0.00862327
13 *66:33 0.00163214
14 *66:29 0.00940987
15 *66:27 0.00901117
16 *66:13 0.00194401
17 *66:9 0.00203488
18 *66:7 0.0089885
19 *66:5 0.0143503
20 *333:select[2] *67:21 0.000757836
21 *336:select[2] *336:select[3] 6.52316e-05
22 *66:9 *106:29 0
23 *66:49 *336:select[3] 5.747e-05
24 *66:49 *67:59 0.000380151
25 *66:49 *67:73 1.09886e-05
26 *66:65 *67:13 2.79482e-05
27 *66:65 *106:29 0
28 *66:65 *106:39 0
29 *66:69 *67:21 0.000327822
30 *66:85 *67:11 0
31 *66:85 *67:13 0
32 *66:85 *67:91 0
33 *336:select[1] *336:select[2] 0.00151089
34 *65:41 *335:select[2] 0.00031594
35 *65:41 *66:33 0.000136994
*RES
1 io_in[8] *66:5 50.7323 
2 *66:5 *66:7 8 
3 *66:7 *66:9 42.4021 
4 *66:9 *66:13 8.65707 
5 *66:13 *334:select[2] 22.0937 
6 *66:13 *66:27 8 
7 *66:27 *66:29 207.909 
8 *66:29 *66:33 9.25813 
9 *66:33 *335:select[2] 20.8916 
10 *66:33 *66:47 8 
11 *66:47 *66:49 202.275 
12 *66:49 *336:select[2] 33.8216 
13 *66:7 *66:65 165.652 
14 *66:65 *66:69 8.65707 
15 *66:69 *333:select[2] 22.798 
16 *66:69 *66:83 8 
17 *66:83 *66:85 206.501 
18 *66:85 *332:select[2] 30.0937 
*END

*D_NET *67 0.107848
*CONN
*P io_in[9] I
*I *332:select[3] I *D mux16x1_project
*I *336:select[3] I *D mux16x1_project
*I *335:select[3] I *D mux16x1_project
*I *334:select[3] I *D mux16x1_project
*I *333:select[3] I *D mux16x1_project
*CAP
1 io_in[9] 0.014699
2 *332:select[3] 0.000676347
3 *336:select[3] 0.00120416
4 *335:select[3] 9.70882e-05
5 *334:select[3] 0.000117958
6 *333:select[3] 9.16934e-05
7 *67:91 0.00437519
8 *67:75 0.00950117
9 *67:73 0.00873573
10 *67:59 0.00149879
11 *67:51 0.00744258
12 *67:49 0.00786608
13 *67:39 0.00235235
14 *67:35 0.00729736
15 *67:33 0.00816251
16 *67:21 0.0028352
17 *67:13 0.00533556
18 *67:11 0.00480339
19 *67:7 0.00419711
20 *67:5 0.014699
21 *67:11 *106:39 0
22 *67:13 *106:39 0
23 *67:91 *106:39 0
24 *333:select[2] *67:21 0.000757836
25 *336:select[1] *336:select[3] 0.000231893
26 *336:select[2] *336:select[3] 6.52316e-05
27 *64:9 *336:select[3] 0
28 *65:19 *67:75 0
29 *66:49 *336:select[3] 5.747e-05
30 *66:49 *67:59 0.000380151
31 *66:49 *67:73 1.09886e-05
32 *66:65 *67:13 2.79482e-05
33 *66:69 *67:21 0.000327822
34 *66:85 *67:11 0
35 *66:85 *67:13 0
36 *66:85 *67:91 0
*RES
1 io_in[9] *67:5 50.7323 
2 *67:5 *67:7 8 
3 *67:7 *67:11 11.4964 
4 *67:11 *67:13 99.76 
5 *67:13 *67:21 30.3205 
6 *67:21 *333:select[3] 2.21643 
7 *67:21 *67:33 39.875 
8 *67:33 *67:35 150.22 
9 *67:35 *67:39 19.2643 
10 *67:39 *334:select[3] 2.69286 
11 *67:39 *67:49 32.2936 
12 *67:49 *67:51 150.22 
13 *67:51 *67:59 24.8779 
14 *67:59 *335:select[3] 2.21643 
15 *67:59 *67:73 38.5654 
16 *67:73 *67:75 191.535 
17 *67:75 *336:select[3] 35.3714 
18 *67:7 *67:91 85.1875 
19 *67:91 *332:select[3] 43.6404 
*END

*D_NET *106 0.211119
*CONN
*P io_out[0] O
*I *332:y O *D mux16x1_project
*I *333:y O *D mux16x1_project
*I *334:y O *D mux16x1_project
*I *335:y O *D mux16x1_project
*I *336:y O *D mux16x1_project
*CAP
1 io_out[0] 0.014337
2 *332:y 0.000664798
3 *333:y 0.000650339
4 *334:y 0.000650339
5 *335:y 0.00065935
6 *336:y 0.000637048
7 *106:55 0.014337
8 *106:53 0.0517008
9 *106:51 0.051884
10 *106:39 0.00962619
11 *106:29 0.0185598
12 *106:19 0.0184278
13 *106:9 0.0184361
14 *106:7 0.00894733
15 *106:5 0.000820234
16 *65:19 *106:9 0
17 *65:19 *106:19 0
18 *65:41 *106:19 0.000781028
19 *66:9 *106:29 0
20 *66:65 *106:29 0
21 *66:65 *106:39 0
22 *67:11 *106:39 0
23 *67:13 *106:39 0
24 *67:91 *106:39 0
*RES
1 *336:y *106:5 2.04587 
2 *106:5 *106:7 8 
3 *106:7 *106:9 207.205 
4 *106:9 *335:y 10.0459 
5 *106:9 *106:19 207.205 
6 *106:19 *334:y 10.0459 
7 *106:19 *106:29 207.205 
8 *106:29 *333:y 10.0459 
9 *106:29 *106:39 207.205 
10 *106:39 *332:y 10.0459 
11 *106:5 *106:51 8.65707 
12 *106:51 *106:53 1197.43 
13 *106:53 *106:55 8 
14 *106:55 io_out[0] 49.4443 
*END

*D_NET *252 0.132196
*CONN
*I *332:data_in[0] I *D mux16x1_project
*I *337:X1_Y1 O *D sky130_osu_ring_oscillator_mpr2aa_8_b0r1
*CAP
1 *332:data_in[0] 0.00118382
2 *337:X1_Y1 9.26957e-05
3 *252:18 0.0507843
4 *252:16 0.0496005
5 *252:14 0.0129425
6 *252:12 0.0130115
7 *252:10 0.00227841
8 *252:8 0.00230215
9 *332:data_in[0] *300:18 0
*RES
1 *337:X1_Y1 *252:8 39.7555 
2 *252:8 *252:10 50.9054 
3 *252:10 *252:12 1.57429 
4 *252:12 *252:14 300.471 
5 *252:14 *252:16 15 
6 *252:16 *252:18 1115.46 
7 *252:18 *332:data_in[0] 32.7359 
*END

*D_NET *262 0.113864
*CONN
*I *332:data_in[4] I *D mux16x1_project
*I *338:X1_Y1 O *D sky130_osu_ring_oscillator_mpr2ea_8_b0r1
*CAP
1 *332:data_in[4] 0.000526234
2 *338:X1_Y1 0.000557878
3 *262:14 0.0022354
4 *262:12 0.00170916
5 *262:10 0.0531689
6 *262:8 0.0537267
7 *262:14 *264:26 0.00107129
8 *262:14 *268:22 0.000868653
9 *262:14 *284:18 0
*RES
1 *338:X1_Y1 *262:8 42.5943 
2 *262:8 *262:10 1124.04 
3 *262:10 *262:12 15 
4 *262:12 *262:14 51.3818 
5 *262:14 *332:data_in[4] 9.96 
*END

*D_NET *264 0.210823
*CONN
*I *332:data_in[6] I *D mux16x1_project
*I *339:X1_Y1 O *D sky130_osu_ring_oscillator_mpr2xa_8_b0r1
*CAP
1 *332:data_in[6] 0.000596336
2 *339:X1_Y1 0.000532566
3 *264:26 0.00440954
4 *264:24 0.0038132
5 *264:22 0.0324072
6 *264:20 0.0332401
7 *264:10 0.00136549
8 *264:20 *280:14 2.28308e-05
9 *264:20 *280:16 2.4754e-05
10 *264:22 *280:16 0.10139
11 *264:26 *268:22 0.0109285
12 *264:26 *280:20 0.00347491
13 *264:26 *284:18 0.00120491
14 *264:26 *294:18 0.0163303
15 *264:26 *310:18 1.12487e-05
16 *262:14 *264:26 0.00107129
*RES
1 *339:X1_Y1 *264:10 49.7709 
2 *264:10 *264:20 32.9593 
3 *264:20 *264:22 1107.84 
4 *264:22 *264:24 15 
5 *264:24 *264:26 251.399 
6 *264:26 *332:data_in[6] 10.1317 
*END

*D_NET *268 0.161394
*CONN
*I *333:data_in[0] I *D mux16x1_project
*I *337:X2_Y1 O *D sky130_osu_ring_oscillator_mpr2aa_8_b0r1
*CAP
1 *333:data_in[0] 0.000530787
2 *337:X2_Y1 0.000757027
3 *268:22 0.00413491
4 *268:20 0.00360412
5 *268:18 0.0495104
6 *268:16 0.0495104
7 *268:14 0.0175935
8 *268:12 0.0175935
9 *268:10 0.0025416
10 *268:8 0.00329863
11 *268:10 *284:12 0
12 *268:10 *300:14 0
13 *268:18 *326:9 0.000522491
14 *41:82 *268:8 0
15 *61:39 *268:14 0
16 *61:67 *268:14 0
17 *61:69 *268:14 0
18 *62:64 *268:14 0
19 *262:14 *268:22 0.000868653
20 *264:26 *268:22 0.0109285
*RES
1 *337:X2_Y1 *268:8 47.3689 
2 *268:8 *268:10 54.9343 
3 *268:10 *268:12 15 
4 *268:12 *268:14 406.87 
5 *268:14 *268:16 15 
6 *268:16 *268:18 1053.05 
7 *268:18 *268:20 15 
8 *268:20 *268:22 138.713 
9 *268:22 *333:data_in[0] 10.0459 
*END

*D_NET *278 0.120486
*CONN
*I *333:data_in[4] I *D mux16x1_project
*I *338:X2_Y1 O *D sky130_osu_ring_oscillator_mpr2ea_8_b0r1
*CAP
1 *333:data_in[4] 0.00114886
2 *338:X2_Y1 0
3 *278:10 0.0531178
4 *278:8 0.0519689
5 *278:6 0.00712538
6 *278:4 0.00712538
7 *333:data_in[4] *300:18 0
8 *338:s2 *278:6 0
9 *41:37 *278:6 0
*RES
1 *338:X2_Y1 *278:4 15 
2 *278:4 *278:6 162.607 
3 *278:6 *278:8 15 
4 *278:8 *278:10 1101.17 
5 *278:10 *333:data_in[4] 32.0316 
*END

*D_NET *280 0.174601
*CONN
*I *333:data_in[6] I *D mux16x1_project
*I *339:X2_Y1 O *D sky130_osu_ring_oscillator_mpr2xa_8_b0r1
*CAP
1 *333:data_in[6] 0.000530787
2 *339:X2_Y1 0.000565638
3 *280:20 0.00180606
4 *280:18 0.00127528
5 *280:16 0.0324484
6 *280:14 0.0324669
7 *280:10 0.000584146
8 *280:20 *294:18 1.12487e-05
9 *30:9 *280:20 0
10 *264:20 *280:14 2.28308e-05
11 *264:20 *280:16 2.4754e-05
12 *264:22 *280:16 0.10139
13 *264:26 *280:20 0.00347491
*RES
1 *339:X2_Y1 *280:10 49.7398 
2 *280:10 *280:14 15.4971 
3 *280:14 *280:16 1108.79 
4 *280:16 *280:18 15 
5 *280:18 *280:20 44.6911 
6 *280:20 *333:data_in[6] 10.0459 
*END

*D_NET *284 0.281176
*CONN
*I *334:data_in[0] I *D mux16x1_project
*I *337:X3_Y1 O *D sky130_osu_ring_oscillator_mpr2aa_8_b0r1
*CAP
1 *334:data_in[0] 0.000721452
2 *337:X3_Y1 0.000589474
3 *284:18 0.0154331
4 *284:16 0.0147117
5 *284:14 0.0305373
6 *284:12 0.0308566
7 *284:8 0.000908803
8 *284:14 *300:14 0.100499
9 *284:18 *300:18 0.059059
10 *284:18 *310:18 0.0258526
11 *52:62 *284:8 0.000801669
12 *262:14 *284:18 0
13 *264:26 *284:18 0.00120491
14 *268:10 *284:12 0
*RES
1 *337:X3_Y1 *284:8 49.4818 
2 *284:8 *284:12 7.07393 
3 *284:12 *284:14 1083.31 
4 *284:14 *284:16 15 
5 *284:16 *284:18 750.033 
6 *284:18 *334:data_in[0] 10.3893 
*END

*D_NET *294 0.220542
*CONN
*I *334:data_in[4] I *D mux16x1_project
*I *338:X3_Y1 O *D sky130_osu_ring_oscillator_mpr2ea_8_b0r1
*CAP
1 *334:data_in[4] 0.000635783
2 *338:X3_Y1 0.000842058
3 *294:18 0.00707333
4 *294:16 0.00643754
5 *294:14 0.0325965
6 *294:12 0.0328469
7 *294:8 0.00109249
8 *294:14 *310:12 0
9 *294:14 *310:14 0.0946308
10 *294:18 *310:18 0.0280452
11 *338:s3 *294:8 0
12 *264:26 *294:18 0.0163303
13 *280:20 *294:18 1.12487e-05
*RES
1 *338:X3_Y1 *294:8 48.9329 
2 *294:8 *294:12 5.16821 
3 *294:12 *294:14 1084.26 
4 *294:14 *294:16 15 
5 *294:16 *294:18 356.337 
6 *294:18 *334:data_in[4] 10.2176 
*END

*D_NET *296 0.119343
*CONN
*I *334:data_in[6] I *D mux16x1_project
*I *339:X3_Y1 O *D sky130_osu_ring_oscillator_mpr2xa_8_b0r1
*CAP
1 *334:data_in[6] 0.00113596
2 *339:X3_Y1 0.00136861
3 *296:14 0.0524339
4 *296:12 0.051298
5 *296:10 0.00586886
6 *296:8 0.00723747
7 *334:data_in[6] *300:18 0
*RES
1 *339:X3_Y1 *296:8 46.2061 
2 *296:8 *296:10 136.165 
3 *296:10 *296:12 15 
4 *296:12 *296:14 1086.88 
5 *296:14 *334:data_in[6] 31.6795 
*END

*D_NET *300 0.284939
*CONN
*I *335:data_in[0] I *D mux16x1_project
*I *337:X4_Y1 O *D sky130_osu_ring_oscillator_mpr2aa_8_b0r1
*CAP
1 *335:data_in[0] 0.000729305
2 *337:X4_Y1 1.96972e-05
3 *300:18 0.0273698
4 *300:16 0.0266405
5 *300:14 0.0300571
6 *300:12 0.0310166
7 *300:8 0.000979198
8 *300:18 *310:18 0.0085366
9 *332:data_in[0] *300:18 0
10 *333:data_in[4] *300:18 0
11 *334:data_in[6] *300:18 0
12 *337:s4 *300:8 3.185e-05
13 *268:10 *300:14 0
14 *284:14 *300:14 0.100499
15 *284:18 *300:18 0.059059
*RES
1 *337:X4_Y1 *300:8 38.3677 
2 *300:8 *300:12 36.6257 
3 *300:12 *300:14 1072.59 
4 *300:14 *300:16 15 
5 *300:16 *300:18 957.445 
6 *300:18 *335:data_in[0] 10.4752 
*END

*D_NET *310 0.245431
*CONN
*I *335:data_in[4] I *D mux16x1_project
*I *338:X4_Y1 O *D sky130_osu_ring_oscillator_mpr2ea_8_b0r1
*CAP
1 *335:data_in[4] 0.000658158
2 *338:X4_Y1 0.000768485
3 *310:18 0.0113233
4 *310:16 0.0106651
5 *310:14 0.0301423
6 *310:12 0.0320854
7 *310:8 0.00271158
8 *264:26 *310:18 1.12487e-05
9 *284:18 *310:18 0.0258526
10 *294:14 *310:12 0
11 *294:14 *310:14 0.0946308
12 *294:18 *310:18 0.0280452
13 *300:18 *310:18 0.0085366
*RES
1 *338:X4_Y1 *310:8 47.1721 
2 *310:8 *310:12 39.9268 
3 *310:12 *310:14 1033.76 
4 *310:14 *310:16 15 
5 *310:16 *310:18 563.75 
6 *310:18 *335:data_in[4] 10.3035 
*END

*D_NET *312 0.135748
*CONN
*I *335:data_in[6] I *D mux16x1_project
*I *339:X4_Y1 O *D sky130_osu_ring_oscillator_mpr2xa_8_b0r1
*CAP
1 *335:data_in[6] 0.00111894
2 *339:X4_Y1 0.000689471
3 *312:18 0.0513893
4 *312:16 0.0502703
5 *312:14 0.0154764
6 *312:12 0.0157954
7 *312:8 0.00100839
*RES