*SPEF "ieee 1481-1999"
*DESIGN "user_project_wrapper"
*DATE "11:11:11 Fri 11 11, 1111"
*VENDOR "OpenRCX"
*PROGRAM "Parallel Extraction"
*VERSION "1.0"
*DESIGN_FLOW "NAME_SCOPE LOCAL" "PIN_CAP NONE"
*DIVIDER /
*DELIMITER :
*BUS_DELIMITER []
*T_UNIT 1 NS
*C_UNIT 1 PF
*R_UNIT 1 OHM
*L_UNIT 1 HENRY

*NAME_MAP
*1 analog_io[0]
*2 analog_io[10]
*3 analog_io[11]
*4 analog_io[12]
*5 analog_io[13]
*6 analog_io[14]
*7 analog_io[15]
*8 analog_io[16]
*9 analog_io[17]
*10 analog_io[18]
*11 analog_io[19]
*12 analog_io[1]
*13 analog_io[20]
*14 analog_io[21]
*15 analog_io[22]
*16 analog_io[23]
*17 analog_io[24]
*18 analog_io[25]
*19 analog_io[26]
*20 analog_io[27]
*21 analog_io[28]
*22 analog_io[2]
*23 analog_io[3]
*24 analog_io[4]
*25 analog_io[5]
*26 analog_io[6]
*27 analog_io[7]
*28 analog_io[8]
*29 analog_io[9]
*30 io_in[0]
*31 io_in[10]
*32 io_in[11]
*33 io_in[12]
*34 io_in[13]
*35 io_in[14]
*36 io_in[15]
*37 io_in[16]
*38 io_in[17]
*39 io_in[18]
*40 io_in[19]
*41 io_in[1]
*42 io_in[20]
*43 io_in[21]
*44 io_in[22]
*45 io_in[23]
*46 io_in[24]
*47 io_in[25]
*48 io_in[26]
*49 io_in[27]
*50 io_in[28]
*51 io_in[29]
*52 io_in[2]
*53 io_in[30]
*54 io_in[31]
*55 io_in[32]
*56 io_in[33]
*57 io_in[34]
*58 io_in[35]
*59 io_in[36]
*60 io_in[37]
*61 io_in[3]
*62 io_in[4]
*63 io_in[5]
*64 io_in[6]
*65 io_in[7]
*66 io_in[8]
*67 io_in[9]
*68 io_oeb[0]
*69 io_oeb[10]
*70 io_oeb[11]
*71 io_oeb[12]
*72 io_oeb[13]
*73 io_oeb[14]
*74 io_oeb[15]
*75 io_oeb[16]
*76 io_oeb[17]
*77 io_oeb[18]
*78 io_oeb[19]
*79 io_oeb[1]
*80 io_oeb[20]
*81 io_oeb[21]
*82 io_oeb[22]
*83 io_oeb[23]
*84 io_oeb[24]
*85 io_oeb[25]
*86 io_oeb[26]
*87 io_oeb[27]
*88 io_oeb[28]
*89 io_oeb[29]
*90 io_oeb[2]
*91 io_oeb[30]
*92 io_oeb[31]
*93 io_oeb[32]
*94 io_oeb[33]
*95 io_oeb[34]
*96 io_oeb[35]
*97 io_oeb[36]
*98 io_oeb[37]
*99 io_oeb[3]
*100 io_oeb[4]
*101 io_oeb[5]
*102 io_oeb[6]
*103 io_oeb[7]
*104 io_oeb[8]
*105 io_oeb[9]
*106 io_out[0]
*107 io_out[10]
*108 io_out[11]
*109 io_out[12]
*110 io_out[13]
*111 io_out[14]
*112 io_out[15]
*113 io_out[16]
*114 io_out[17]
*115 io_out[18]
*116 io_out[19]
*117 io_out[1]
*118 io_out[20]
*119 io_out[21]
*120 io_out[22]
*121 io_out[23]
*122 io_out[24]
*123 io_out[25]
*124 io_out[26]
*125 io_out[27]
*126 io_out[28]
*127 io_out[29]
*128 io_out[2]
*129 io_out[30]
*130 io_out[31]
*131 io_out[32]
*132 io_out[33]
*133 io_out[34]
*134 io_out[35]
*135 io_out[36]
*136 io_out[37]
*137 io_out[3]
*138 io_out[4]
*139 io_out[5]
*140 io_out[6]
*141 io_out[7]
*142 io_out[8]
*143 io_out[9]
*146 wb_clk_i
*147 wb_rst_i
*148 wbs_ack_o
*149 wbs_adr_i[0]
*150 wbs_adr_i[10]
*151 wbs_adr_i[11]
*152 wbs_adr_i[12]
*153 wbs_adr_i[13]
*154 wbs_adr_i[14]
*155 wbs_adr_i[15]
*156 wbs_adr_i[16]
*157 wbs_adr_i[17]
*158 wbs_adr_i[18]
*159 wbs_adr_i[19]
*160 wbs_adr_i[1]
*161 wbs_adr_i[20]
*162 wbs_adr_i[21]
*163 wbs_adr_i[22]
*164 wbs_adr_i[23]
*165 wbs_adr_i[24]
*166 wbs_adr_i[25]
*167 wbs_adr_i[26]
*168 wbs_adr_i[27]
*169 wbs_adr_i[28]
*170 wbs_adr_i[29]
*171 wbs_adr_i[2]
*172 wbs_adr_i[30]
*173 wbs_adr_i[31]
*174 wbs_adr_i[3]
*175 wbs_adr_i[4]
*176 wbs_adr_i[5]
*177 wbs_adr_i[6]
*178 wbs_adr_i[7]
*179 wbs_adr_i[8]
*180 wbs_adr_i[9]
*181 wbs_cyc_i
*182 wbs_dat_i[0]
*183 wbs_dat_i[10]
*184 wbs_dat_i[11]
*185 wbs_dat_i[12]
*186 wbs_dat_i[13]
*187 wbs_dat_i[14]
*188 wbs_dat_i[15]
*189 wbs_dat_i[16]
*190 wbs_dat_i[17]
*191 wbs_dat_i[18]
*192 wbs_dat_i[19]
*193 wbs_dat_i[1]
*194 wbs_dat_i[20]
*195 wbs_dat_i[21]
*196 wbs_dat_i[22]
*197 wbs_dat_i[23]
*198 wbs_dat_i[24]
*199 wbs_dat_i[25]
*200 wbs_dat_i[26]
*201 wbs_dat_i[27]
*202 wbs_dat_i[28]
*203 wbs_dat_i[29]
*204 wbs_dat_i[2]
*205 wbs_dat_i[30]
*206 wbs_dat_i[31]
*207 wbs_dat_i[3]
*208 wbs_dat_i[4]
*209 wbs_dat_i[5]
*210 wbs_dat_i[6]
*211 wbs_dat_i[7]
*212 wbs_dat_i[8]
*213 wbs_dat_i[9]
*214 wbs_dat_o[0]
*215 wbs_dat_o[10]
*216 wbs_dat_o[11]
*217 wbs_dat_o[12]
*218 wbs_dat_o[13]
*219 wbs_dat_o[14]
*220 wbs_dat_o[15]
*221 wbs_dat_o[16]
*222 wbs_dat_o[17]
*223 wbs_dat_o[18]
*224 wbs_dat_o[19]
*225 wbs_dat_o[1]
*226 wbs_dat_o[20]
*227 wbs_dat_o[21]
*228 wbs_dat_o[22]
*229 wbs_dat_o[23]
*230 wbs_dat_o[24]
*231 wbs_dat_o[25]
*232 wbs_dat_o[26]
*233 wbs_dat_o[27]
*234 wbs_dat_o[28]
*235 wbs_dat_o[29]
*236 wbs_dat_o[2]
*237 wbs_dat_o[30]
*238 wbs_dat_o[31]
*239 wbs_dat_o[3]
*240 wbs_dat_o[4]
*241 wbs_dat_o[5]
*242 wbs_dat_o[6]
*243 wbs_dat_o[7]
*244 wbs_dat_o[8]
*245 wbs_dat_o[9]
*246 wbs_sel_i[0]
*247 wbs_sel_i[1]
*248 wbs_sel_i[2]
*249 wbs_sel_i[3]
*250 wbs_stb_i
*251 wbs_we_i
*252 x1\[0\]
*253 x1\[10\]
*254 x1\[11\]
*255 x1\[12\]
*256 x1\[13\]
*257 x1\[14\]
*258 x1\[15\]
*259 x1\[1\]
*260 x1\[2\]
*261 x1\[3\]
*262 x1\[4\]
*263 x1\[5\]
*264 x1\[6\]
*265 x1\[7\]
*266 x1\[8\]
*267 x1\[9\]
*268 x2\[0\]
*269 x2\[10\]
*270 x2\[11\]
*271 x2\[12\]
*272 x2\[13\]
*273 x2\[14\]
*274 x2\[15\]
*275 x2\[1\]
*276 x2\[2\]
*277 x2\[3\]
*278 x2\[4\]
*279 x2\[5\]
*280 x2\[6\]
*281 x2\[7\]
*282 x2\[8\]
*283 x2\[9\]
*284 x3\[0\]
*285 x3\[10\]
*286 x3\[11\]
*287 x3\[12\]
*288 x3\[13\]
*289 x3\[14\]
*290 x3\[15\]
*291 x3\[1\]
*292 x3\[2\]
*293 x3\[3\]
*294 x3\[4\]
*295 x3\[5\]
*296 x3\[6\]
*297 x3\[7\]
*298 x3\[8\]
*299 x3\[9\]
*300 x4\[0\]
*301 x4\[10\]
*302 x4\[11\]
*303 x4\[12\]
*304 x4\[13\]
*305 x4\[14\]
*306 x4\[15\]
*307 x4\[1\]
*308 x4\[2\]
*309 x4\[3\]
*310 x4\[4\]
*311 x4\[5\]
*312 x4\[6\]
*313 x4\[7\]
*314 x4\[8\]
*315 x4\[9\]
*316 x5\[0\]
*317 x5\[10\]
*318 x5\[11\]
*319 x5\[12\]
*320 x5\[13\]
*321 x5\[14\]
*322 x5\[15\]
*323 x5\[1\]
*324 x5\[2\]
*325 x5\[3\]
*326 x5\[4\]
*327 x5\[5\]
*328 x5\[6\]
*329 x5\[7\]
*330 x5\[8\]
*331 x5\[9\]
*332 mprj1
*333 mprj2
*334 mprj3
*335 mprj4
*336 mprj5
*337 ro1
*338 ro10
*339 ro11
*340 ro12
*341 ro13
*342 ro14
*343 ro15
*344 ro16
*345 ro2
*346 ro3
*347 ro4
*348 ro5
*349 ro6
*350 ro7
*351 ro8
*352 ro9

*PORTS
analog_io[0] I
analog_io[10] I
analog_io[11] I
analog_io[12] I
analog_io[13] I
analog_io[14] I
analog_io[15] I
analog_io[16] I
analog_io[17] I
analog_io[18] I
analog_io[19] I
analog_io[1] I
analog_io[20] I
analog_io[21] I
analog_io[22] I
analog_io[23] I
analog_io[24] I
analog_io[25] I
analog_io[26] I
analog_io[27] I
analog_io[28] I
analog_io[2] I
analog_io[3] I
analog_io[4] I
analog_io[5] I
analog_io[6] I
analog_io[7] I
analog_io[8] I
analog_io[9] I
io_in[0] I
io_in[10] I
io_in[11] I
io_in[12] I
io_in[13] I
io_in[14] I
io_in[15] I
io_in[16] I
io_in[17] I
io_in[18] I
io_in[19] I
io_in[1] I
io_in[20] I
io_in[21] I
io_in[22] I
io_in[23] I
io_in[24] I
io_in[25] I
io_in[26] I
io_in[27] I
io_in[28] I
io_in[29] I
io_in[2] I
io_in[30] I
io_in[31] I
io_in[32] I
io_in[33] I
io_in[34] I
io_in[35] I
io_in[36] I
io_in[37] I
io_in[3] I
io_in[4] I
io_in[5] I
io_in[6] I
io_in[7] I
io_in[8] I
io_in[9] I
io_oeb[0] O
io_oeb[10] O
io_oeb[11] O
io_oeb[12] O
io_oeb[13] O
io_oeb[14] O
io_oeb[15] O
io_oeb[16] O
io_oeb[17] O
io_oeb[18] O
io_oeb[19] O
io_oeb[1] O
io_oeb[20] O
io_oeb[21] O
io_oeb[22] O
io_oeb[23] O
io_oeb[24] O
io_oeb[25] O
io_oeb[26] O
io_oeb[27] O
io_oeb[28] O
io_oeb[29] O
io_oeb[2] O
io_oeb[30] O
io_oeb[31] O
io_oeb[32] O
io_oeb[33] O
io_oeb[34] O
io_oeb[35] O
io_oeb[36] O
io_oeb[37] O
io_oeb[3] O
io_oeb[4] O
io_oeb[5] O
io_oeb[6] O
io_oeb[7] O
io_oeb[8] O
io_oeb[9] O
io_out[0] O
io_out[10] O
io_out[11] O
io_out[12] O
io_out[13] O
io_out[14] O
io_out[15] O
io_out[16] O
io_out[17] O
io_out[18] O
io_out[19] O
io_out[1] O
io_out[20] O
io_out[21] O
io_out[22] O
io_out[23] O
io_out[24] O
io_out[25] O
io_out[26] O
io_out[27] O
io_out[28] O
io_out[29] O
io_out[2] O
io_out[30] O
io_out[31] O
io_out[32] O
io_out[33] O
io_out[34] O
io_out[35] O
io_out[36] O
io_out[37] O
io_out[3] O
io_out[4] O
io_out[5] O
io_out[6] O
io_out[7] O
io_out[8] O
io_out[9] O
wb_clk_i I
wb_rst_i I
wbs_ack_o O
wbs_adr_i[0] I
wbs_adr_i[10] I
wbs_adr_i[11] I
wbs_adr_i[12] I
wbs_adr_i[13] I
wbs_adr_i[14] I
wbs_adr_i[15] I
wbs_adr_i[16] I
wbs_adr_i[17] I
wbs_adr_i[18] I
wbs_adr_i[19] I
wbs_adr_i[1] I
wbs_adr_i[20] I
wbs_adr_i[21] I
wbs_adr_i[22] I
wbs_adr_i[23] I
wbs_adr_i[24] I
wbs_adr_i[25] I
wbs_adr_i[26] I
wbs_adr_i[27] I
wbs_adr_i[28] I
wbs_adr_i[29] I
wbs_adr_i[2] I
wbs_adr_i[30] I
wbs_adr_i[31] I
wbs_adr_i[3] I
wbs_adr_i[4] I
wbs_adr_i[5] I
wbs_adr_i[6] I
wbs_adr_i[7] I
wbs_adr_i[8] I
wbs_adr_i[9] I
wbs_cyc_i I
wbs_dat_i[0] I
wbs_dat_i[10] I
wbs_dat_i[11] I
wbs_dat_i[12] I
wbs_dat_i[13] I
wbs_dat_i[14] I
wbs_dat_i[15] I
wbs_dat_i[16] I
wbs_dat_i[17] I
wbs_dat_i[18] I
wbs_dat_i[19] I
wbs_dat_i[1] I
wbs_dat_i[20] I
wbs_dat_i[21] I
wbs_dat_i[22] I
wbs_dat_i[23] I
wbs_dat_i[24] I
wbs_dat_i[25] I
wbs_dat_i[26] I
wbs_dat_i[27] I
wbs_dat_i[28] I
wbs_dat_i[29] I
wbs_dat_i[2] I
wbs_dat_i[30] I
wbs_dat_i[31] I
wbs_dat_i[3] I
wbs_dat_i[4] I
wbs_dat_i[5] I
wbs_dat_i[6] I
wbs_dat_i[7] I
wbs_dat_i[8] I
wbs_dat_i[9] I
wbs_dat_o[0] O
wbs_dat_o[10] O
wbs_dat_o[11] O
wbs_dat_o[12] O
wbs_dat_o[13] O
wbs_dat_o[14] O
wbs_dat_o[15] O
wbs_dat_o[16] O
wbs_dat_o[17] O
wbs_dat_o[18] O
wbs_dat_o[19] O
wbs_dat_o[1] O
wbs_dat_o[20] O
wbs_dat_o[21] O
wbs_dat_o[22] O
wbs_dat_o[23] O
wbs_dat_o[24] O
wbs_dat_o[25] O
wbs_dat_o[26] O
wbs_dat_o[27] O
wbs_dat_o[28] O
wbs_dat_o[29] O
wbs_dat_o[2] O
wbs_dat_o[30] O
wbs_dat_o[31] O
wbs_dat_o[3] O
wbs_dat_o[4] O
wbs_dat_o[5] O
wbs_dat_o[6] O
wbs_dat_o[7] O
wbs_dat_o[8] O
wbs_dat_o[9] O
wbs_sel_i[0] I
wbs_sel_i[1] I
wbs_sel_i[2] I
wbs_sel_i[3] I
wbs_stb_i I
wbs_we_i I

*D_NET *30 0.391782
*CONN
*P io_in[0] I
*I *344:s1 I *D sky130_osu_ring_oscillator_mpr2ya_8_b0r2
*I *343:s1 I *D sky130_osu_ring_oscillator_mpr2xa_8_b0r2
*I *342:s1 I *D sky130_osu_ring_oscillator_mpr2et_8_b0r2
*I *346:s1 I *D sky130_osu_ring_oscillator_mpr2ca_8_b0r1
*I *337:s1 I *D sky130_osu_ring_oscillator_mpr2aa_8_b0r1
*I *345:s1 I *D sky130_osu_ring_oscillator_mpr2at_8_b0r1
*I *347:s1 I *D sky130_osu_ring_oscillator_mpr2ct_8_b0r1
*I *348:s1 I *D sky130_osu_ring_oscillator_mpr2ea_8_b0r1
*I *349:s1 I *D sky130_osu_ring_oscillator_mpr2et_8_b0r1
*I *350:s1 I *D sky130_osu_ring_oscillator_mpr2xa_8_b0r1
*I *351:s1 I *D sky130_osu_ring_oscillator_mpr2ya_8_b0r1
*I *352:s1 I *D sky130_osu_ring_oscillator_mpr2aa_8_b0r2
*I *338:s1 I *D sky130_osu_ring_oscillator_mpr2at_8_b0r2
*I *339:s1 I *D sky130_osu_ring_oscillator_mpr2ca_8_b0r2
*I *340:s1 I *D sky130_osu_ring_oscillator_mpr2ct_8_b0r2
*I *341:s1 I *D sky130_osu_ring_oscillator_mpr2ea_8_b0r2
*CAP
1 io_in[0] 0.0649771
2 *344:s1 0.000360468
3 *343:s1 4.98814e-05
4 *342:s1 0.000282396
5 *346:s1 0.000620277
6 *337:s1 0.00110817
7 *345:s1 0.000497408
8 *347:s1 7.49856e-06
9 *348:s1 0.000396406
10 *349:s1 0.000494333
11 *350:s1 0.000142783
12 *351:s1 0.0004932
13 *352:s1 0.000845907
14 *338:s1 0.000741312
15 *339:s1 0.000179929
16 *340:s1 0.000175846
17 *341:s1 0.000363349
18 *30:285 0.00479524
19 *30:274 0.00904285
20 *30:272 0.00535278
21 *30:268 0.00111468
22 *30:266 0.00371466
23 *30:264 0.00415358
24 *30:247 0.00158805
25 *30:237 0.00452171
26 *30:235 0.0038478
27 *30:214 0.00358273
28 *30:203 0.00561799
29 *30:201 0.00439896
30 *30:170 0.00277226
31 *30:162 0.00366505
32 *30:160 0.00341553
33 *30:152 0.000773422
34 *30:138 0.00414851
35 *30:136 0.00432023
36 *30:117 0.00448784
37 *30:115 0.00462131
38 *30:87 0.0042374
39 *30:85 0.00514507
40 *30:61 0.00383748
41 *30:50 0.00560176
42 *30:39 0.00599709
43 *30:37 0.00357638
44 *30:31 0.00489424
45 *30:29 0.00436538
46 *30:23 0.000732256
47 *30:19 0.00427142
48 *30:17 0.00425184
49 *30:13 0.00291221
50 *30:9 0.0288417
51 *30:7 0.0265411
52 *30:5 0.0649771
53 *337:s1 *337:s2 0
54 *337:s1 *337:start 0
55 *337:s1 *41:349 0
56 *339:s1 *339:s2 0.000109192
57 *339:s1 *339:start 7.88402e-05
58 *340:s1 *340:s2 3.30999e-05
59 *340:s1 *340:start 2.99101e-05
60 *341:s1 *341:s2 8.263e-05
61 *341:s1 *341:start 8.35157e-05
62 *345:s1 *345:start 8.53011e-05
63 *346:s1 *260:16 0
64 *348:s1 *348:s2 8.78055e-05
65 *348:s1 *348:start 2.22026e-05
66 *349:s1 *349:start 8.35157e-05
67 *30:9 *41:9 0.0260076
68 *30:13 *41:21 0.00449272
69 *30:13 *52:21 0.000530479
70 *30:17 *52:21 0.000217141
71 *30:19 *52:23 0
72 *30:29 *343:s2 9.36152e-05
73 *30:39 *41:55 0.000401255
74 *30:39 *41:71 0.00704778
75 *30:39 *41:87 0.000107447
76 *30:50 *41:87 0.00694674
77 *30:50 *41:101 0.000107322
78 *30:61 *41:101 0.00693377
79 *30:61 *41:120 8.33575e-05
80 *30:85 *41:120 0.000194871
81 *30:115 *338:s2 0.00113887
82 *30:117 *41:120 0
83 *30:117 *41:146 0
84 *30:117 *41:148 0
85 *30:138 *265:12 0
86 *30:160 *351:start 0.000122202
87 *30:162 *41:163 0.000173908
88 *30:162 *52:264 0.00366666
89 *30:203 *41:209 0.00219108
90 *30:203 *52:280 0
91 *30:214 *41:209 0.000376303
92 *30:214 *41:235 0.00657581
93 *30:214 *41:250 0.000107322
94 *30:214 *52:280 0
95 *30:214 *52:303 0
96 *30:235 *41:250 0.000305674
97 *30:235 *52:309 0.000905969
98 *30:247 *41:258 0
99 *30:264 *41:258 0.000504247
100 *30:285 *41:349 0
*RES
1 io_in[0] *30:5 174.265 
2 *30:5 *30:7 0.5 
3 *30:7 *30:9 648.315 
4 *30:9 *30:13 9.68587 
5 *30:13 *30:17 1.47027 
6 *30:17 *30:19 72.525 
7 *30:19 *30:23 1.20807 
8 *30:23 *30:29 1.735 
9 *30:29 *30:31 71.505 
10 *30:31 *30:37 2.84427 
11 *30:37 *30:39 84.6375 
12 *30:39 *341:s1 10.8638 
13 *30:39 *30:50 78.9 
14 *30:50 *340:s1 6.98625 
15 *30:50 *30:61 78.39 
16 *30:61 *339:s1 6.3275 
17 *30:61 *30:85 5.46637 
18 *30:85 *30:87 73.545 
19 *30:87 *338:s1 0.7575 
20 *338:s1 *30:115 12.572 
21 *30:115 *30:117 71.1225 
22 *30:117 *352:s1 12.0725 
23 *352:s1 *30:136 8.875 
24 *30:136 *30:138 73.5525 
25 *30:138 *351:s1 2.025 
26 *351:s1 *30:152 8.9075 
27 *30:152 *30:160 9.26 
28 *30:160 *30:162 79.0275 
29 *30:162 *30:170 2.18593 
30 *30:170 *350:s1 4.01877 
31 *30:170 *30:201 28.5059 
32 *30:201 *30:203 52.8375 
33 *30:203 *349:s1 12.54 
34 *30:203 *30:214 78.9 
35 *30:214 *348:s1 11.4975 
36 *30:214 *30:235 5.92563 
37 *30:235 *30:237 61.305 
38 *30:237 *30:247 16.4753 
39 *30:247 *347:s1 2.1875 
40 *30:247 *30:264 2.38827 
41 *30:264 *30:266 67.425 
42 *30:266 *30:268 0.5 
43 *30:268 *30:272 1.87813 
44 *30:272 *30:274 87.9525 
45 *30:274 *345:s1 12.7163 
46 *30:274 *30:285 67.1475 
47 *30:285 *337:s1 21.74 
48 *30:268 *346:s1 8.5849 
49 *30:31 *342:s1 5.05875 
50 *30:23 *343:s1 2.8879 
51 *30:13 *344:s1 12.6875 
*END

*D_NET *41 0.407455
*CONN
*P io_in[1] I
*I *344:s2 I *D sky130_osu_ring_oscillator_mpr2ya_8_b0r2
*I *351:s2 I *D sky130_osu_ring_oscillator_mpr2ya_8_b0r1
*I *337:s2 I *D sky130_osu_ring_oscillator_mpr2aa_8_b0r1
*I *345:s2 I *D sky130_osu_ring_oscillator_mpr2at_8_b0r1
*I *346:s2 I *D sky130_osu_ring_oscillator_mpr2ca_8_b0r1
*I *347:s2 I *D sky130_osu_ring_oscillator_mpr2ct_8_b0r1
*I *348:s2 I *D sky130_osu_ring_oscillator_mpr2ea_8_b0r1
*I *349:s2 I *D sky130_osu_ring_oscillator_mpr2et_8_b0r1
*I *350:s2 I *D sky130_osu_ring_oscillator_mpr2xa_8_b0r1
*I *352:s2 I *D sky130_osu_ring_oscillator_mpr2aa_8_b0r2
*I *338:s2 I *D sky130_osu_ring_oscillator_mpr2at_8_b0r2
*I *339:s2 I *D sky130_osu_ring_oscillator_mpr2ca_8_b0r2
*I *340:s2 I *D sky130_osu_ring_oscillator_mpr2ct_8_b0r2
*I *341:s2 I *D sky130_osu_ring_oscillator_mpr2ea_8_b0r2
*I *342:s2 I *D sky130_osu_ring_oscillator_mpr2et_8_b0r2
*I *343:s2 I *D sky130_osu_ring_oscillator_mpr2xa_8_b0r2
*CAP
1 io_in[1] 0.0649456
2 *344:s2 0.000495846
3 *351:s2 0.000558329
4 *337:s2 0.00160991
5 *345:s2 0.000339061
6 *346:s2 0.000432865
7 *347:s2 0.000298712
8 *348:s2 0.00106838
9 *349:s2 0.00151295
10 *350:s2 0.00209261
11 *352:s2 0.00113385
12 *338:s2 0.00173357
13 *339:s2 0.000944482
14 *340:s2 0.000905125
15 *341:s2 0.00107472
16 *342:s2 0.00130544
17 *343:s2 0.00114841
18 *41:349 0.00502338
19 *41:347 0.0051685
20 *41:318 0.00187485
21 *41:308 0.0042088
22 *41:306 0.00430297
23 *41:282 0.00408086
24 *41:280 0.00449228
25 *41:258 0.00359099
26 *41:250 0.00548816
27 *41:235 0.00631952
28 *41:209 0.00617964
29 *41:201 0.00507365
30 *41:199 0.00335534
31 *41:171 0.00448726
32 *41:169 0.00281865
33 *41:167 0.00178947
34 *41:163 0.00575101
35 *41:148 0.00942811
36 *41:146 0.00406292
37 *41:120 0.00662231
38 *41:101 0.0082584
39 *41:87 0.00635862
40 *41:71 0.00655545
41 *41:55 0.00600697
42 *41:53 0.00398871
43 *41:27 0.00574547
44 *41:25 0.00337862
45 *41:21 0.00241818
46 *41:9 0.0131447
47 *41:7 0.0120321
48 *41:5 0.0649456
49 *339:s2 *339:start 3.86616e-05
50 *340:s2 *340:start 2.69217e-05
51 *341:s2 *341:start 1.34687e-05
52 *342:s2 *342:start 4.93662e-06
53 *343:s2 *52:29 0.00249353
54 *348:s2 *348:start 4.77807e-05
55 *349:s2 *349:s3 0.0017278
56 *350:s2 *280:8 0
57 *352:s2 *352:start 4.90291e-05
58 *41:9 *52:9 0.0182451
59 *41:21 *52:13 0.00335108
60 *41:21 *52:21 0.000856722
61 *41:25 *52:21 0.00123321
62 *41:27 *52:23 0.0066594
63 *41:53 *52:23 5.33602e-05
64 *41:250 *52:303 0
65 *337:s1 *337:s2 0
66 *337:s1 *41:349 0
67 *339:s1 *339:s2 0.000109192
68 *340:s1 *340:s2 3.30999e-05
69 *341:s1 *341:s2 8.263e-05
70 *348:s1 *348:s2 8.78055e-05
71 *30:9 *41:9 0.0260076
72 *30:13 *41:21 0.00449272
73 *30:29 *343:s2 9.36152e-05
74 *30:39 *41:55 0.000401255
75 *30:39 *41:71 0.00704778
76 *30:39 *41:87 0.000107447
77 *30:50 *41:87 0.00694674
78 *30:50 *41:101 0.000107322
79 *30:61 *41:101 0.00693377
80 *30:61 *41:120 8.33575e-05
81 *30:85 *41:120 0.000194871
82 *30:115 *338:s2 0.00113887
83 *30:117 *41:120 0
84 *30:117 *41:146 0
85 *30:117 *41:148 0
86 *30:162 *41:163 0.000173908
87 *30:203 *41:209 0.00219108
88 *30:214 *41:209 0.000376303
89 *30:214 *41:235 0.00657581
90 *30:214 *41:250 0.000107322
91 *30:235 *41:250 0.000305674
92 *30:247 *41:258 0
93 *30:264 *41:258 0.000504247
94 *30:285 *41:349 0
*RES
1 io_in[1] *41:5 174.149 
2 *41:5 *41:7 0.5 
3 *41:7 *41:9 499.905 
4 *41:9 *41:21 11.7474 
5 *41:21 *41:25 3.6844 
6 *41:25 *41:27 74.565 
7 *41:27 *343:s2 14.8026 
8 *41:27 *41:53 37.035 
9 *41:53 *41:55 37.2825 
10 *41:55 *342:s2 25.235 
11 *41:55 *41:71 78.9 
12 *41:71 *341:s2 21.8825 
13 *41:71 *41:87 78.9 
14 *41:87 *340:s2 18.5375 
15 *41:87 *41:101 78.645 
16 *41:101 *339:s2 19.9175 
17 *41:101 *41:120 84.3825 
18 *41:120 *338:s2 15.9212 
19 *41:120 *41:146 5.22 
20 *41:146 *41:148 68.7525 
21 *41:148 *352:s2 26.055 
22 *41:148 *41:163 82.3425 
23 *41:163 *41:167 3.62613 
24 *41:167 *41:169 0.5 
25 *41:169 *41:171 51.105 
26 *41:171 *350:s2 26.6482 
27 *350:s2 *41:199 4.70163 
28 *41:199 *41:201 53.145 
29 *41:201 *41:209 32.7329 
30 *41:209 *349:s2 11.0483 
31 *41:209 *41:235 73.4175 
32 *41:235 *348:s2 23.4862 
33 *41:235 *41:250 50.9775 
34 *41:250 *41:258 35.6774 
35 *41:258 *347:s2 5.16967 
36 *41:258 *41:280 1.79073 
37 *41:280 *41:282 72.015 
38 *41:282 *346:s2 2.23125 
39 *346:s2 *41:306 2.81672 
40 *41:306 *41:308 72.525 
41 *41:308 *345:s2 4.39125 
42 *345:s2 *41:318 2.52375 
43 *41:318 *41:347 24.5808 
44 *41:347 *41:349 62.175 
45 *41:349 *337:s2 34.5675 
46 *41:167 *351:s2 4.672 
47 *41:21 *344:s2 12.6875 
*END

*D_NET *52 0.448693
*CONN
*P io_in[2] I
*I *344:s3 I *D sky130_osu_ring_oscillator_mpr2ya_8_b0r2
*I *350:s3 I *D sky130_osu_ring_oscillator_mpr2xa_8_b0r1
*I *337:s3 I *D sky130_osu_ring_oscillator_mpr2aa_8_b0r1
*I *345:s3 I *D sky130_osu_ring_oscillator_mpr2at_8_b0r1
*I *346:s3 I *D sky130_osu_ring_oscillator_mpr2ca_8_b0r1
*I *347:s3 I *D sky130_osu_ring_oscillator_mpr2ct_8_b0r1
*I *348:s3 I *D sky130_osu_ring_oscillator_mpr2ea_8_b0r1
*I *349:s3 I *D sky130_osu_ring_oscillator_mpr2et_8_b0r1
*I *351:s3 I *D sky130_osu_ring_oscillator_mpr2ya_8_b0r1
*I *352:s3 I *D sky130_osu_ring_oscillator_mpr2aa_8_b0r2
*I *338:s3 I *D sky130_osu_ring_oscillator_mpr2at_8_b0r2
*I *339:s3 I *D sky130_osu_ring_oscillator_mpr2ca_8_b0r2
*I *340:s3 I *D sky130_osu_ring_oscillator_mpr2ct_8_b0r2
*I *341:s3 I *D sky130_osu_ring_oscillator_mpr2ea_8_b0r2
*I *342:s3 I *D sky130_osu_ring_oscillator_mpr2et_8_b0r2
*I *343:s3 I *D sky130_osu_ring_oscillator_mpr2xa_8_b0r2
*CAP
1 io_in[2] 0.0694819
2 *344:s3 0.000410247
3 *350:s3 0.00059854
4 *337:s3 0.00223175
5 *345:s3 3.10125e-05
6 *346:s3 0.000581783
7 *347:s3 0.00228114
8 *348:s3 0.000372352
9 *349:s3 0.00253319
10 *351:s3 0.000420285
11 *352:s3 0.00150441
12 *338:s3 0.0016525
13 *339:s3 0.00183025
14 *340:s3 0.00189313
15 *341:s3 0.00237401
16 *342:s3 0.00201446
17 *343:s3 0.000340177
18 *52:434 0.00668299
19 *52:432 0.00672182
20 *52:399 0.00242848
21 *52:393 0.00398353
22 *52:376 0.00756659
23 *52:368 0.00525537
24 *52:341 0.00779501
25 *52:335 0.00603664
26 *52:309 0.00527744
27 *52:303 0.00652856
28 *52:280 0.00960592
29 *52:272 0.00634603
30 *52:270 0.00354675
31 *52:268 0.00240088
32 *52:264 0.00471907
33 *52:262 0.00484893
34 *52:237 0.00439949
35 *52:233 0.00387545
36 *52:229 0.00373825
37 *52:209 0.00597059
38 *52:183 0.00467864
39 *52:175 0.00477071
40 *52:173 0.00462064
41 *52:150 0.00233366
42 *52:144 0.00156451
43 *52:142 0.00138082
44 *52:121 0.00207344
45 *52:117 0.00456159
46 *52:115 0.00461719
47 *52:89 0.00260992
48 *52:87 0.00275339
49 *52:85 0.00275339
50 *52:61 0.00270944
51 *52:57 0.00490328
52 *52:55 0.00699777
53 *52:29 0.0046309
54 *52:23 0.00415615
55 *52:21 0.00387246
56 *52:13 0.00247169
57 *52:9 0.0137737
58 *52:7 0.0129299
59 *52:5 0.0694819
60 *338:s3 *338:s4 0.00105898
61 *339:s3 *339:s4 0.00185444
62 *340:s3 *340:s4 0.00145163
63 *340:s3 *62:151 0
64 *342:s3 *61:119 0.000237881
65 *342:s3 *62:116 0.00054249
66 *347:s3 *347:s4 0.00160928
67 *352:s3 *352:s4 0
68 *352:s3 *352:s5 0.000244625
69 *352:s3 *61:281 0
70 *52:13 *61:15 0.00185446
71 *52:57 *257:22 0
72 *52:57 *272:14 0.000919666
73 *52:57 *273:14 0
74 *52:61 *61:119 8.16925e-06
75 *52:61 *62:116 0.000226117
76 *52:87 *61:121 0.00631603
77 *52:87 *62:130 0.000299682
78 *52:117 *61:121 0
79 *52:117 *61:169 0
80 *52:117 *61:171 0
81 *52:121 *340:s4 5.82744e-05
82 *52:144 *61:171 5.10462e-05
83 *52:144 *61:192 0.00442084
84 *52:144 *61:198 0.000987857
85 *52:144 *62:153 0.00320434
86 *52:144 *62:157 0.00067716
87 *52:144 *62:175 0.000217586
88 *52:150 *61:198 0.000494067
89 *52:150 *62:175 0.000212552
90 *52:150 *62:177 0
91 *52:173 *61:227 0
92 *52:175 *338:s5 0
93 *52:175 *256:18 0
94 *52:175 *313:18 0
95 *52:183 *338:s4 0
96 *52:183 *61:237 0.00107355
97 *52:209 *61:237 5.10462e-05
98 *52:209 *61:263 0.00618857
99 *52:209 *61:281 0.000217498
100 *52:229 *352:s5 6.79775e-05
101 *52:229 *61:281 0.000161401
102 *52:229 *61:283 0.00139427
103 *52:229 *295:18 0
104 *52:229 *296:14 0
105 *52:233 *61:283 0.00187478
106 *52:233 *61:291 0.000483728
107 *52:233 *62:243 0
108 *52:233 *295:18 0
109 *52:237 *351:s4 0
110 *52:272 *279:12 0
111 *52:341 *61:404 0.00302911
112 *52:368 *61:429 0
113 *52:376 *346:s4 0.00188888
114 *52:376 *61:429 0.00204111
115 *52:376 *61:456 2.67006e-05
116 *52:432 *61:478 0.000340747
117 *52:432 *291:12 4.22132e-05
118 *52:434 *61:480 0
119 *52:434 *62:371 0
120 *343:s2 *52:29 0.00249353
121 *349:s2 *349:s3 0.0017278
122 *30:13 *52:21 0.000530479
123 *30:17 *52:21 0.000217141
124 *30:19 *52:23 0
125 *30:162 *52:264 0.00366666
126 *30:203 *52:280 0
127 *30:214 *52:280 0
128 *30:214 *52:303 0
129 *30:235 *52:309 0.000905969
130 *41:9 *52:9 0.0182451
131 *41:21 *52:13 0.00335108
132 *41:21 *52:21 0.000856722
133 *41:25 *52:21 0.00123321
134 *41:27 *52:23 0.0066594
135 *41:53 *52:23 5.33602e-05
136 *41:250 *52:303 0
*RES
1 io_in[2] *52:5 174.032 
2 *52:5 *52:7 0.5 
3 *52:7 *52:9 350.985 
4 *52:9 *52:13 5.6072 
5 *52:13 *52:21 6.43813 
6 *52:21 *52:23 76.095 
7 *52:23 *52:29 6.68987 
8 *52:29 *343:s3 10.0863 
9 *52:29 *52:55 9.72327 
10 *52:55 *52:57 83.235 
11 *52:57 *52:61 2.286 
12 *52:61 *342:s3 16.3181 
13 *52:61 *52:85 0.5 
14 *52:85 *52:87 75.585 
15 *52:87 *52:89 0.5 
16 *52:89 *341:s3 14.0162 
17 *52:89 *52:115 1.00413 
18 *52:115 *52:117 77.625 
19 *52:117 *52:121 0.945867 
20 *52:121 *340:s3 10.7694 
21 *52:121 *52:142 0.5 
22 *52:142 *52:144 72.015 
23 *52:144 *52:150 6.665 
24 *52:150 *339:s3 9.9717 
25 *52:150 *52:173 1.29547 
26 *52:173 *52:175 77.625 
27 *52:175 *52:183 5.03313 
28 *52:183 *338:s3 16.5503 
29 *52:183 *52:209 72.3975 
30 *52:209 *352:s3 30.0125 
31 *52:209 *52:229 41.4975 
32 *52:229 *52:233 47.405 
33 *52:233 *52:237 5.89853 
34 *52:237 *351:s3 11.3175 
35 *52:237 *52:262 8.01913 
36 *52:262 *52:264 75.585 
37 *52:264 *52:268 5.31587 
38 *52:268 *52:270 0.5 
39 *52:270 *52:272 64.365 
40 *52:272 *52:280 20.7253 
41 *52:280 *349:s3 16.601 
42 *52:280 *52:303 77.625 
43 *52:303 *52:309 7.62213 
44 *52:309 *348:s3 5.81078 
45 *52:309 *52:335 48.545 
46 *52:335 *52:341 40.1153 
47 *52:341 *347:s3 13.7143 
48 *52:341 *52:368 37.92 
49 *52:368 *52:376 47.7911 
50 *52:376 *346:s3 6.94853 
51 *52:376 *52:393 67.2975 
52 *52:393 *52:399 4.265 
53 *52:399 *345:s3 2.39875 
54 *52:399 *52:432 24.754 
55 *52:432 *52:434 78.645 
56 *52:434 *337:s3 14.0735 
57 *52:268 *350:s3 9.8029 
58 *52:13 *344:s3 11.61 
*END

*D_NET *61 0.379814
*CONN
*P io_in[3] I
*I *337:s4 I *D sky130_osu_ring_oscillator_mpr2aa_8_b0r1
*I *345:s4 I *D sky130_osu_ring_oscillator_mpr2at_8_b0r1
*I *346:s4 I *D sky130_osu_ring_oscillator_mpr2ca_8_b0r1
*I *347:s4 I *D sky130_osu_ring_oscillator_mpr2ct_8_b0r1
*I *348:s4 I *D sky130_osu_ring_oscillator_mpr2ea_8_b0r1
*I *349:s4 I *D sky130_osu_ring_oscillator_mpr2et_8_b0r1
*I *350:s4 I *D sky130_osu_ring_oscillator_mpr2xa_8_b0r1
*I *351:s4 I *D sky130_osu_ring_oscillator_mpr2ya_8_b0r1
*I *352:s4 I *D sky130_osu_ring_oscillator_mpr2aa_8_b0r2
*I *338:s4 I *D sky130_osu_ring_oscillator_mpr2at_8_b0r2
*I *339:s4 I *D sky130_osu_ring_oscillator_mpr2ca_8_b0r2
*I *340:s4 I *D sky130_osu_ring_oscillator_mpr2ct_8_b0r2
*I *341:s4 I *D sky130_osu_ring_oscillator_mpr2ea_8_b0r2
*I *342:s4 I *D sky130_osu_ring_oscillator_mpr2et_8_b0r2
*I *343:s4 I *D sky130_osu_ring_oscillator_mpr2xa_8_b0r2
*I *344:s4 I *D sky130_osu_ring_oscillator_mpr2ya_8_b0r2
*CAP
1 io_in[3] 0.0516248
2 *337:s4 0.000906903
3 *345:s4 0.000974948
4 *346:s4 0.00104611
5 *347:s4 0.00106269
6 *348:s4 0.00164782
7 *349:s4 0.00122042
8 *350:s4 0.00413308
9 *351:s4 0.000532164
10 *352:s4 0.000924708
11 *338:s4 0.000828128
12 *339:s4 0.000960118
13 *340:s4 0.00104705
14 *341:s4 0.00313916
15 *342:s4 0.00214411
16 *343:s4 0.000472852
17 *344:s4 0.000623126
18 *61:495 4.58705e-06
19 *61:480 0.00490133
20 *61:478 0.00494675
21 *61:458 0.00553892
22 *61:456 0.00412496
23 *61:429 0.00503801
24 *61:408 0.00471875
25 *61:404 0.00350429
26 *61:402 0.00364249
27 *61:370 0.0049197
28 *61:368 0.00407025
29 *61:348 0.00609603
30 *61:346 0.00646148
31 *61:315 0.00455508
32 *61:313 0.00312651
33 *61:291 0.00144903
34 *61:283 0.00265485
35 *61:281 0.00201246
36 *61:263 0.00360349
37 *61:237 0.00410172
38 *61:229 0.00359352
39 *61:227 0.00380302
40 *61:198 0.00322088
41 *61:192 0.00307764
42 *61:171 0.00313934
43 *61:169 0.00286877
44 *61:121 0.0101243
45 *61:119 0.00580276
46 *61:87 3.04751e-06
47 *61:73 0.00433059
48 *61:71 0.00424485
49 *61:41 0.00438462
50 *61:39 0.00360688
51 *61:15 0.00966895
52 *61:9 0.019901
53 *61:7 0.0111159
54 *61:5 0.0516248
55 *337:s4 *337:s5 0
56 *342:s4 *304:8 0
57 *343:s4 *305:8 0
58 *345:s4 *307:20 2.49423e-05
59 *345:s4 *323:8 7.18388e-05
60 *350:s4 *312:8 0
61 *352:s4 *352:s5 0
62 *61:15 *344:s5 0.000382753
63 *61:15 *62:13 0.0245325
64 *61:41 *305:8 0.00028704
65 *61:71 *305:8 7.61765e-05
66 *61:121 *62:130 0
67 *61:169 *62:130 0
68 *61:169 *62:151 8.57934e-05
69 *61:171 *62:153 0.000156882
70 *61:227 *62:177 0
71 *61:229 *323:10 0
72 *61:229 *330:11 0.0037786
73 *61:281 *352:s5 0.000205722
74 *61:283 *62:217 0.00295049
75 *61:283 *62:225 0.00139395
76 *61:291 *62:225 0.000214427
77 *61:291 *62:241 0.000217032
78 *61:346 *62:275 0
79 *61:348 *254:14 0
80 *61:348 *323:10 0
81 *61:368 *62:281 0
82 *61:368 *254:14 0
83 *61:368 *323:10 0
84 *61:370 *62:291 0.00635248
85 *61:370 *62:301 0.00105352
86 *61:402 *62:301 0.000435643
87 *61:404 *62:301 0
88 *61:404 *62:333 0
89 *61:408 *62:333 0
90 *61:429 *62:333 0
91 *61:429 *62:349 0.00089085
92 *61:429 *62:351 2.40201e-05
93 *61:456 *62:351 0.000235248
94 *61:478 *62:371 0
95 *338:s3 *338:s4 0.00105898
96 *339:s3 *339:s4 0.00185444
97 *340:s3 *340:s4 0.00145163
98 *342:s3 *61:119 0.000237881
99 *347:s3 *347:s4 0.00160928
100 *352:s3 *352:s4 0
101 *352:s3 *61:281 0
102 *52:13 *61:15 0.00185446
103 *52:61 *61:119 8.16925e-06
104 *52:87 *61:121 0.00631603
105 *52:117 *61:121 0
106 *52:117 *61:169 0
107 *52:117 *61:171 0
108 *52:121 *340:s4 5.82744e-05
109 *52:144 *61:171 5.10462e-05
110 *52:144 *61:192 0.00442084
111 *52:144 *61:198 0.000987857
112 *52:150 *61:198 0.000494067
113 *52:173 *61:227 0
114 *52:183 *338:s4 0
115 *52:183 *61:237 0.00107355
116 *52:209 *61:237 5.10462e-05
117 *52:209 *61:263 0.00618857
118 *52:209 *61:281 0.000217498
119 *52:229 *61:281 0.000161401
120 *52:229 *61:283 0.00139427
121 *52:233 *61:283 0.00187478
122 *52:233 *61:291 0.000483728
123 *52:237 *351:s4 0
124 *52:341 *61:404 0.00302911
125 *52:368 *61:429 0
126 *52:376 *346:s4 0.00188888
127 *52:376 *61:429 0.00204111
128 *52:376 *61:456 2.67006e-05
129 *52:432 *61:478 0.000340747
130 *52:434 *61:480 0
*RES
1 io_in[3] *61:5 138.431 
2 *61:5 *61:7 0.5 
3 *61:7 *61:9 202.065 
4 *61:9 *61:15 39.3192 
5 *61:15 *344:s4 14.53 
6 *61:15 *61:39 4.695 
7 *61:39 *61:41 62.445 
8 *61:41 *343:s4 5.62365 
9 *61:41 *61:71 14.875 
10 *61:71 *61:73 66.495 
11 *61:73 *342:s4 7.52402 
12 *342:s4 *61:87 0.226154 
13 *342:s4 *61:119 19.5875 
14 *61:119 *61:121 101.085 
15 *61:121 *341:s4 41.4323 
16 *61:121 *61:169 45.9507 
17 *61:169 *61:171 4.695 
18 *61:171 *340:s4 9.5602 
19 *61:171 *61:192 51.135 
20 *61:192 *61:198 28.185 
21 *61:198 *339:s4 8.82267 
22 *61:198 *61:227 7.481 
23 *61:227 *61:229 73.035 
24 *61:229 *61:237 5.84887 
25 *61:237 *338:s4 14.8574 
26 *61:237 *61:263 69.3375 
27 *61:263 *352:s4 18.2825 
28 *61:263 *61:281 10.96 
29 *61:281 *61:283 73.5525 
30 *61:283 *61:291 8.4908 
31 *61:291 *351:s4 3.90393 
32 *61:291 *61:313 0.5 
33 *61:313 *61:315 56.715 
34 *61:315 *350:s4 21.2222 
35 *350:s4 *61:346 18.5402 
36 *61:346 *61:348 67.5525 
37 *61:348 *349:s4 23.0075 
38 *61:348 *61:368 8.8835 
39 *61:368 *61:370 82.725 
40 *61:370 *348:s4 14.3536 
41 *61:370 *61:402 7.455 
42 *61:402 *61:404 72.555 
43 *61:404 *61:408 3.03 
44 *61:408 *347:s4 11.0307 
45 *61:408 *61:429 77.115 
46 *61:429 *346:s4 9.40043 
47 *61:429 *61:456 6.54873 
48 *61:456 *61:458 65.2575 
49 *61:458 *345:s4 19.5575 
50 *61:458 *61:478 10.7706 
51 *61:478 *61:480 72.1425 
52 *61:480 *337:s4 18.2075 