*SPEF "ieee 1481-1999"
*DESIGN "user_project_wrapper"
*DATE "11:11:11 Fri 11 11, 1111"
*VENDOR "OpenRCX"
*PROGRAM "Parallel Extraction"
*VERSION "1.0"
*DESIGN_FLOW "NAME_SCOPE LOCAL" "PIN_CAP NONE"
*DIVIDER /
*DELIMITER :
*BUS_DELIMITER []
*T_UNIT 1 NS
*C_UNIT 1 PF
*R_UNIT 1 OHM
*L_UNIT 1 HENRY

*NAME_MAP
*1 analog_io[0]
*2 analog_io[10]
*3 analog_io[11]
*4 analog_io[12]
*5 analog_io[13]
*6 analog_io[14]
*7 analog_io[15]
*8 analog_io[16]
*9 analog_io[17]
*10 analog_io[18]
*11 analog_io[19]
*12 analog_io[1]
*13 analog_io[20]
*14 analog_io[21]
*15 analog_io[22]
*16 analog_io[23]
*17 analog_io[24]
*18 analog_io[25]
*19 analog_io[26]
*20 analog_io[27]
*21 analog_io[28]
*22 analog_io[2]
*23 analog_io[3]
*24 analog_io[4]
*25 analog_io[5]
*26 analog_io[6]
*27 analog_io[7]
*28 analog_io[8]
*29 analog_io[9]
*30 io_in[0]
*31 io_in[10]
*32 io_in[11]
*33 io_in[12]
*34 io_in[13]
*35 io_in[14]
*36 io_in[15]
*37 io_in[16]
*38 io_in[17]
*39 io_in[18]
*40 io_in[19]
*41 io_in[1]
*42 io_in[20]
*43 io_in[21]
*44 io_in[22]
*45 io_in[23]
*46 io_in[24]
*47 io_in[25]
*48 io_in[26]
*49 io_in[27]
*50 io_in[28]
*51 io_in[29]
*52 io_in[2]
*53 io_in[30]
*54 io_in[31]
*55 io_in[32]
*56 io_in[33]
*57 io_in[34]
*58 io_in[35]
*59 io_in[36]
*60 io_in[37]
*61 io_in[3]
*62 io_in[4]
*63 io_in[5]
*64 io_in[6]
*65 io_in[7]
*66 io_in[8]
*67 io_in[9]
*68 io_oeb[0]
*69 io_oeb[10]
*70 io_oeb[11]
*71 io_oeb[12]
*72 io_oeb[13]
*73 io_oeb[14]
*74 io_oeb[15]
*75 io_oeb[16]
*76 io_oeb[17]
*77 io_oeb[18]
*78 io_oeb[19]
*79 io_oeb[1]
*80 io_oeb[20]
*81 io_oeb[21]
*82 io_oeb[22]
*83 io_oeb[23]
*84 io_oeb[24]
*85 io_oeb[25]
*86 io_oeb[26]
*87 io_oeb[27]
*88 io_oeb[28]
*89 io_oeb[29]
*90 io_oeb[2]
*91 io_oeb[30]
*92 io_oeb[31]
*93 io_oeb[32]
*94 io_oeb[33]
*95 io_oeb[34]
*96 io_oeb[35]
*97 io_oeb[36]
*98 io_oeb[37]
*99 io_oeb[3]
*100 io_oeb[4]
*101 io_oeb[5]
*102 io_oeb[6]
*103 io_oeb[7]
*104 io_oeb[8]
*105 io_oeb[9]
*106 io_out[0]
*107 io_out[10]
*108 io_out[11]
*109 io_out[12]
*110 io_out[13]
*111 io_out[14]
*112 io_out[15]
*113 io_out[16]
*114 io_out[17]
*115 io_out[18]
*116 io_out[19]
*117 io_out[1]
*118 io_out[20]
*119 io_out[21]
*120 io_out[22]
*121 io_out[23]
*122 io_out[24]
*123 io_out[25]
*124 io_out[26]
*125 io_out[27]
*126 io_out[28]
*127 io_out[29]
*128 io_out[2]
*129 io_out[30]
*130 io_out[31]
*131 io_out[32]
*132 io_out[33]
*133 io_out[34]
*134 io_out[35]
*135 io_out[36]
*136 io_out[37]
*137 io_out[3]
*138 io_out[4]
*139 io_out[5]
*140 io_out[6]
*141 io_out[7]
*142 io_out[8]
*143 io_out[9]
*146 wb_clk_i
*147 wb_rst_i
*148 wbs_ack_o
*149 wbs_adr_i[0]
*150 wbs_adr_i[10]
*151 wbs_adr_i[11]
*152 wbs_adr_i[12]
*153 wbs_adr_i[13]
*154 wbs_adr_i[14]
*155 wbs_adr_i[15]
*156 wbs_adr_i[16]
*157 wbs_adr_i[17]
*158 wbs_adr_i[18]
*159 wbs_adr_i[19]
*160 wbs_adr_i[1]
*161 wbs_adr_i[20]
*162 wbs_adr_i[21]
*163 wbs_adr_i[22]
*164 wbs_adr_i[23]
*165 wbs_adr_i[24]
*166 wbs_adr_i[25]
*167 wbs_adr_i[26]
*168 wbs_adr_i[27]
*169 wbs_adr_i[28]
*170 wbs_adr_i[29]
*171 wbs_adr_i[2]
*172 wbs_adr_i[30]
*173 wbs_adr_i[31]
*174 wbs_adr_i[3]
*175 wbs_adr_i[4]
*176 wbs_adr_i[5]
*177 wbs_adr_i[6]
*178 wbs_adr_i[7]
*179 wbs_adr_i[8]
*180 wbs_adr_i[9]
*181 wbs_cyc_i
*182 wbs_dat_i[0]
*183 wbs_dat_i[10]
*184 wbs_dat_i[11]
*185 wbs_dat_i[12]
*186 wbs_dat_i[13]
*187 wbs_dat_i[14]
*188 wbs_dat_i[15]
*189 wbs_dat_i[16]
*190 wbs_dat_i[17]
*191 wbs_dat_i[18]
*192 wbs_dat_i[19]
*193 wbs_dat_i[1]
*194 wbs_dat_i[20]
*195 wbs_dat_i[21]
*196 wbs_dat_i[22]
*197 wbs_dat_i[23]
*198 wbs_dat_i[24]
*199 wbs_dat_i[25]
*200 wbs_dat_i[26]
*201 wbs_dat_i[27]
*202 wbs_dat_i[28]
*203 wbs_dat_i[29]
*204 wbs_dat_i[2]
*205 wbs_dat_i[30]
*206 wbs_dat_i[31]
*207 wbs_dat_i[3]
*208 wbs_dat_i[4]
*209 wbs_dat_i[5]
*210 wbs_dat_i[6]
*211 wbs_dat_i[7]
*212 wbs_dat_i[8]
*213 wbs_dat_i[9]
*214 wbs_dat_o[0]
*215 wbs_dat_o[10]
*216 wbs_dat_o[11]
*217 wbs_dat_o[12]
*218 wbs_dat_o[13]
*219 wbs_dat_o[14]
*220 wbs_dat_o[15]
*221 wbs_dat_o[16]
*222 wbs_dat_o[17]
*223 wbs_dat_o[18]
*224 wbs_dat_o[19]
*225 wbs_dat_o[1]
*226 wbs_dat_o[20]
*227 wbs_dat_o[21]
*228 wbs_dat_o[22]
*229 wbs_dat_o[23]
*230 wbs_dat_o[24]
*231 wbs_dat_o[25]
*232 wbs_dat_o[26]
*233 wbs_dat_o[27]
*234 wbs_dat_o[28]
*235 wbs_dat_o[29]
*236 wbs_dat_o[2]
*237 wbs_dat_o[30]
*238 wbs_dat_o[31]
*239 wbs_dat_o[3]
*240 wbs_dat_o[4]
*241 wbs_dat_o[5]
*242 wbs_dat_o[6]
*243 wbs_dat_o[7]
*244 wbs_dat_o[8]
*245 wbs_dat_o[9]
*246 wbs_sel_i[0]
*247 wbs_sel_i[1]
*248 wbs_sel_i[2]
*249 wbs_sel_i[3]
*250 wbs_stb_i
*251 wbs_we_i
*252 x1\[0\]
*253 x1\[10\]
*254 x1\[11\]
*255 x1\[12\]
*256 x1\[13\]
*257 x1\[14\]
*258 x1\[15\]
*259 x1\[1\]
*260 x1\[2\]
*261 x1\[3\]
*262 x1\[4\]
*263 x1\[5\]
*264 x1\[6\]
*265 x1\[7\]
*266 x1\[8\]
*267 x1\[9\]
*268 x2\[0\]
*269 x2\[10\]
*270 x2\[11\]
*271 x2\[12\]
*272 x2\[13\]
*273 x2\[14\]
*274 x2\[15\]
*275 x2\[1\]
*276 x2\[2\]
*277 x2\[3\]
*278 x2\[4\]
*279 x2\[5\]
*280 x2\[6\]
*281 x2\[7\]
*282 x2\[8\]
*283 x2\[9\]
*284 x3\[0\]
*285 x3\[10\]
*286 x3\[11\]
*287 x3\[12\]
*288 x3\[13\]
*289 x3\[14\]
*290 x3\[15\]
*291 x3\[1\]
*292 x3\[2\]
*293 x3\[3\]
*294 x3\[4\]
*295 x3\[5\]
*296 x3\[6\]
*297 x3\[7\]
*298 x3\[8\]
*299 x3\[9\]
*300 x4\[0\]
*301 x4\[10\]
*302 x4\[11\]
*303 x4\[12\]
*304 x4\[13\]
*305 x4\[14\]
*306 x4\[15\]
*307 x4\[1\]
*308 x4\[2\]
*309 x4\[3\]
*310 x4\[4\]
*311 x4\[5\]
*312 x4\[6\]
*313 x4\[7\]
*314 x4\[8\]
*315 x4\[9\]
*316 x5\[0\]
*317 x5\[10\]
*318 x5\[11\]
*319 x5\[12\]
*320 x5\[13\]
*321 x5\[14\]
*322 x5\[15\]
*323 x5\[1\]
*324 x5\[2\]
*325 x5\[3\]
*326 x5\[4\]
*327 x5\[5\]
*328 x5\[6\]
*329 x5\[7\]
*330 x5\[8\]
*331 x5\[9\]
*332 mprj1
*333 mprj2
*334 mprj3
*335 mprj4
*336 mprj5
*337 ro11
*338 ro12
*339 ro13
*340 ro14
*341 ro15
*342 ro3
*343 ro4
*344 ro5
*345 ro6
*346 ro7

*PORTS
analog_io[0] I
analog_io[10] I
analog_io[11] I
analog_io[12] I
analog_io[13] I
analog_io[14] I
analog_io[15] I
analog_io[16] I
analog_io[17] I
analog_io[18] I
analog_io[19] I
analog_io[1] I
analog_io[20] I
analog_io[21] I
analog_io[22] I
analog_io[23] I
analog_io[24] I
analog_io[25] I
analog_io[26] I
analog_io[27] I
analog_io[28] I
analog_io[2] I
analog_io[3] I
analog_io[4] I
analog_io[5] I
analog_io[6] I
analog_io[7] I
analog_io[8] I
analog_io[9] I
io_in[0] I
io_in[10] I
io_in[11] I
io_in[12] I
io_in[13] I
io_in[14] I
io_in[15] I
io_in[16] I
io_in[17] I
io_in[18] I
io_in[19] I
io_in[1] I
io_in[20] I
io_in[21] I
io_in[22] I
io_in[23] I
io_in[24] I
io_in[25] I
io_in[26] I
io_in[27] I
io_in[28] I
io_in[29] I
io_in[2] I
io_in[30] I
io_in[31] I
io_in[32] I
io_in[33] I
io_in[34] I
io_in[35] I
io_in[36] I
io_in[37] I
io_in[3] I
io_in[4] I
io_in[5] I
io_in[6] I
io_in[7] I
io_in[8] I
io_in[9] I
io_oeb[0] O
io_oeb[10] O
io_oeb[11] O
io_oeb[12] O
io_oeb[13] O
io_oeb[14] O
io_oeb[15] O
io_oeb[16] O
io_oeb[17] O
io_oeb[18] O
io_oeb[19] O
io_oeb[1] O
io_oeb[20] O
io_oeb[21] O
io_oeb[22] O
io_oeb[23] O
io_oeb[24] O
io_oeb[25] O
io_oeb[26] O
io_oeb[27] O
io_oeb[28] O
io_oeb[29] O
io_oeb[2] O
io_oeb[30] O
io_oeb[31] O
io_oeb[32] O
io_oeb[33] O
io_oeb[34] O
io_oeb[35] O
io_oeb[36] O
io_oeb[37] O
io_oeb[3] O
io_oeb[4] O
io_oeb[5] O
io_oeb[6] O
io_oeb[7] O
io_oeb[8] O
io_oeb[9] O
io_out[0] O
io_out[10] O
io_out[11] O
io_out[12] O
io_out[13] O
io_out[14] O
io_out[15] O
io_out[16] O
io_out[17] O
io_out[18] O
io_out[19] O
io_out[1] O
io_out[20] O
io_out[21] O
io_out[22] O
io_out[23] O
io_out[24] O
io_out[25] O
io_out[26] O
io_out[27] O
io_out[28] O
io_out[29] O
io_out[2] O
io_out[30] O
io_out[31] O
io_out[32] O
io_out[33] O
io_out[34] O
io_out[35] O
io_out[36] O
io_out[37] O
io_out[3] O
io_out[4] O
io_out[5] O
io_out[6] O
io_out[7] O
io_out[8] O
io_out[9] O
wb_clk_i I
wb_rst_i I
wbs_ack_o O
wbs_adr_i[0] I
wbs_adr_i[10] I
wbs_adr_i[11] I
wbs_adr_i[12] I
wbs_adr_i[13] I
wbs_adr_i[14] I
wbs_adr_i[15] I
wbs_adr_i[16] I
wbs_adr_i[17] I
wbs_adr_i[18] I
wbs_adr_i[19] I
wbs_adr_i[1] I
wbs_adr_i[20] I
wbs_adr_i[21] I
wbs_adr_i[22] I
wbs_adr_i[23] I
wbs_adr_i[24] I
wbs_adr_i[25] I
wbs_adr_i[26] I
wbs_adr_i[27] I
wbs_adr_i[28] I
wbs_adr_i[29] I
wbs_adr_i[2] I
wbs_adr_i[30] I
wbs_adr_i[31] I
wbs_adr_i[3] I
wbs_adr_i[4] I
wbs_adr_i[5] I
wbs_adr_i[6] I
wbs_adr_i[7] I
wbs_adr_i[8] I
wbs_adr_i[9] I
wbs_cyc_i I
wbs_dat_i[0] I
wbs_dat_i[10] I
wbs_dat_i[11] I
wbs_dat_i[12] I
wbs_dat_i[13] I
wbs_dat_i[14] I
wbs_dat_i[15] I
wbs_dat_i[16] I
wbs_dat_i[17] I
wbs_dat_i[18] I
wbs_dat_i[19] I
wbs_dat_i[1] I
wbs_dat_i[20] I
wbs_dat_i[21] I
wbs_dat_i[22] I
wbs_dat_i[23] I
wbs_dat_i[24] I
wbs_dat_i[25] I
wbs_dat_i[26] I
wbs_dat_i[27] I
wbs_dat_i[28] I
wbs_dat_i[29] I
wbs_dat_i[2] I
wbs_dat_i[30] I
wbs_dat_i[31] I
wbs_dat_i[3] I
wbs_dat_i[4] I
wbs_dat_i[5] I
wbs_dat_i[6] I
wbs_dat_i[7] I
wbs_dat_i[8] I
wbs_dat_i[9] I
wbs_dat_o[0] O
wbs_dat_o[10] O
wbs_dat_o[11] O
wbs_dat_o[12] O
wbs_dat_o[13] O
wbs_dat_o[14] O
wbs_dat_o[15] O
wbs_dat_o[16] O
wbs_dat_o[17] O
wbs_dat_o[18] O
wbs_dat_o[19] O
wbs_dat_o[1] O
wbs_dat_o[20] O
wbs_dat_o[21] O
wbs_dat_o[22] O
wbs_dat_o[23] O
wbs_dat_o[24] O
wbs_dat_o[25] O
wbs_dat_o[26] O
wbs_dat_o[27] O
wbs_dat_o[28] O
wbs_dat_o[29] O
wbs_dat_o[2] O
wbs_dat_o[30] O
wbs_dat_o[31] O
wbs_dat_o[3] O
wbs_dat_o[4] O
wbs_dat_o[5] O
wbs_dat_o[6] O
wbs_dat_o[7] O
wbs_dat_o[8] O
wbs_dat_o[9] O
wbs_sel_i[0] I
wbs_sel_i[1] I
wbs_sel_i[2] I
wbs_sel_i[3] I
wbs_stb_i I
wbs_we_i I

*D_NET *30 0.365959
*CONN
*P io_in[0] I
*I *339:s1 I *D sky130_osu_ring_oscillator_mpr2ea_8_b0r2
*I *338:s1 I *D sky130_osu_ring_oscillator_mpr2ct_8_b0r2
*I *345:s1 I *D sky130_osu_ring_oscillator_mpr2et_8_b0r1
*I *342:s1 I *D sky130_osu_ring_oscillator_mpr2ca_8_b0r1
*I *343:s1 I *D sky130_osu_ring_oscillator_mpr2ct_8_b0r1
*I *344:s1 I *D sky130_osu_ring_oscillator_mpr2ea_8_b0r1
*I *346:s1 I *D sky130_osu_ring_oscillator_mpr2xa_8_b0r1
*I *337:s1 I *D sky130_osu_ring_oscillator_mpr2ca_8_b0r2
*I *340:s1 I *D sky130_osu_ring_oscillator_mpr2et_8_b0r2
*I *341:s1 I *D sky130_osu_ring_oscillator_mpr2xa_8_b0r2
*CAP
1 io_in[0] 0.0696971
2 *339:s1 0.000487685
3 *338:s1 6.30588e-05
4 *345:s1 0.000515626
5 *342:s1 0.000119246
6 *343:s1 8.22243e-06
7 *344:s1 0.000336366
8 *346:s1 0.00174929
9 *337:s1 0.000198492
10 *340:s1 0.000548662
11 *341:s1 0.000439625
12 *30:224 0.00421253
13 *30:222 0.00509346
14 *30:201 0.00222553
15 *30:191 0.00489337
16 *30:170 0.00466599
17 *30:164 0.00507298
18 *30:162 0.0047222
19 *30:154 0.000818233
20 *30:152 0.00427898
21 *30:150 0.00542158
22 *30:118 0.0181321
23 *30:116 0.0184822
24 *30:92 0.00452677
25 *30:90 0.0035092
26 *30:82 0.000821358
27 *30:72 0.00479672
28 *30:70 0.00417612
29 *30:68 0.00105976
30 *30:64 0.00379269
31 *30:49 0.00397496
32 *30:45 0.00414362
33 *30:43 0.00475908
34 *30:19 0.00362456
35 *30:9 0.044382
36 *30:7 0.0420182
37 *30:5 0.0696971
38 *337:s1 *337:start 5.84502e-05
39 *337:s1 *41:125 0.000100776
40 *338:s1 *338:s2 5.18277e-05
41 *340:s1 *340:start 9.84729e-05
42 *345:s1 *345:start 8.60361e-05
43 *346:s1 *264:12 0
44 *30:19 *341:s2 0.00178724
45 *30:19 *341:s4 0.00236987
46 *30:19 *341:s5 0.000822144
47 *30:64 *41:79 0.00626857
48 *30:64 *41:99 0.000326787
49 *30:82 *41:99 0
50 *30:90 *338:s2 0.000250141
51 *30:90 *338:start 7.89897e-06
52 *30:92 *41:113 0.00571899
53 *30:92 *41:125 0
54 *30:118 *264:12 0
55 *30:152 *41:165 0
56 *30:152 *41:173 0
57 *30:162 *345:start 0.000315806
58 *30:162 *41:173 0.000221759
59 *30:164 *41:173 9.54798e-06
60 *30:164 *41:179 0
61 *30:201 *41:224 0
*RES
1 io_in[0] *30:5 215.539 
2 *30:5 *30:7 3.41 
3 *30:7 *30:9 864.696 
4 *30:9 *30:19 18.0217 
5 *30:19 *341:s1 17.808 
6 *30:19 *30:43 13.1878 
7 *30:43 *30:45 80.8036 
8 *30:45 *30:49 3.61607 
9 *30:49 *340:s1 25.3179 
10 *30:49 *30:64 96.2054 
11 *30:64 *30:68 5.11453 
12 *30:68 *30:70 3.41 
13 *30:70 *30:72 85.7321 
14 *30:72 *30:82 17.0469 
15 *30:82 *30:90 8.05357 
16 *30:90 *30:92 94.8393 
17 *30:92 *337:s1 9.65179 
18 *30:92 *30:116 12.0226 
19 *30:116 *30:118 360.964 
20 *30:118 *346:s1 12.5446 
21 *346:s1 *30:150 23.8006 
22 *30:150 *30:152 87.4018 
23 *30:152 *30:154 4.5 
24 *30:154 *30:162 13.1696 
25 *30:162 *30:164 90.7411 
26 *30:164 *30:170 21.8571 
27 *30:170 *344:s1 13.747 
28 *30:170 *30:191 75.4107 
29 *30:191 *30:201 25.2879 
30 *30:201 *343:s1 4.72321 
31 *30:201 *30:222 17.0371 
32 *30:222 *30:224 84.1964 
33 *30:224 *342:s1 1.91964 
34 *30:154 *345:s1 19.9429 
35 *30:82 *338:s1 1.59821 
36 *30:68 *339:s1 8.06193 
*END

*D_NET *41 0.390001
*CONN
*P io_in[1] I
*I *337:s2 I *D sky130_osu_ring_oscillator_mpr2ca_8_b0r2
*I *346:s2 I *D sky130_osu_ring_oscillator_mpr2xa_8_b0r1
*I *345:s2 I *D sky130_osu_ring_oscillator_mpr2et_8_b0r1
*I *343:s2 I *D sky130_osu_ring_oscillator_mpr2ct_8_b0r1
*I *342:s2 I *D sky130_osu_ring_oscillator_mpr2ca_8_b0r1
*I *344:s2 I *D sky130_osu_ring_oscillator_mpr2ea_8_b0r1
*I *338:s2 I *D sky130_osu_ring_oscillator_mpr2ct_8_b0r2
*I *339:s2 I *D sky130_osu_ring_oscillator_mpr2ea_8_b0r2
*I *340:s2 I *D sky130_osu_ring_oscillator_mpr2et_8_b0r2
*I *341:s2 I *D sky130_osu_ring_oscillator_mpr2xa_8_b0r2
*CAP
1 io_in[1] 0.000845045
2 *337:s2 2.23945e-06
3 *346:s2 8.82009e-05
4 *345:s2 0.00216983
5 *343:s2 0.000367374
6 *342:s2 0.000953297
7 *344:s2 3.50093e-05
8 *338:s2 0.000945557
9 *339:s2 0.00117165
10 *340:s2 0.000699092
11 *341:s2 0.00202339
12 *41:226 0.00502305
13 *41:224 0.00622603
14 *41:216 0.00297528
15 *41:212 0.00445507
16 *41:210 0.00451734
17 *41:185 0.00157552
18 *41:181 0.00436064
19 *41:179 0.00437517
20 *41:173 0.00463993
21 *41:165 0.00537133
22 *41:163 0.00561395
23 *41:151 0.00186659
24 *41:145 0.0179261
25 *41:143 0.0184583
26 *41:125 0.00281239
27 *41:113 0.00437364
28 *41:99 0.00767607
29 *41:79 0.00804081
30 *41:77 0.00441346
31 *41:66 6.15062e-06
32 *41:49 0.00540599
33 *41:43 0.00393417
34 *41:17 0.00359664
35 *41:13 0.0730004
36 *41:11 0.0727205
37 *41:9 0.033194
38 *41:7 0.034039
39 *339:s2 *339:start 4.83019e-06
40 *341:s2 *341:s3 0.00279353
41 *341:s2 *341:s4 0.00336285
42 *341:s2 *61:39 0.000756284
43 *342:s2 *342:start 2.49027e-05
44 *343:s2 *261:11 0.000367444
45 *346:s2 *280:8 0
46 *41:13 *52:13 0
47 *41:17 *273:18 0
48 *41:43 *52:43 0.00787644
49 *41:43 *61:41 0.00792282
50 *41:43 *273:18 0
51 *41:49 *340:s3 0.000688716
52 *41:49 *340:s4 0.000820262
53 *41:49 *52:47 1.39702e-05
54 *41:49 *61:45 0.000735448
55 *41:145 *280:8 0
56 *41:151 *280:8 0
57 *337:s1 *41:125 0.000100776
58 *338:s1 *338:s2 5.18277e-05
59 *30:19 *341:s2 0.00178724
60 *30:64 *41:79 0.00626857
61 *30:64 *41:99 0.000326787
62 *30:82 *41:99 0
63 *30:90 *338:s2 0.000250141
64 *30:92 *41:113 0.00571899
65 *30:92 *41:125 0
66 *30:152 *41:165 0
67 *30:152 *41:173 0
68 *30:162 *41:173 0.000221759
69 *30:164 *41:173 9.54798e-06
70 *30:164 *41:179 0
71 *30:201 *41:224 0
*RES
1 io_in[1] *41:7 5.99187 
2 *41:7 *41:9 683.161 
3 *41:9 *41:11 3.41 
4 *41:11 *41:13 210.193 
5 *41:13 *41:17 8.99929 
6 *41:17 *341:s2 35.5686 
7 *41:17 *41:43 97.875 
8 *41:43 *41:49 16.9563 
9 *41:49 *340:s2 18.4247 
10 *340:s2 *41:66 0.129464 
11 *41:49 *41:77 17.4703 
12 *41:77 *41:79 76.7768 
13 *41:79 *339:s2 28.0714 
14 *41:79 *41:99 93.625 
15 *41:99 *338:s2 24.4911 
16 *41:99 *41:113 70.4375 
17 *41:113 *41:125 49.3482 
18 *41:125 *41:143 20.5057 
19 *41:143 *41:145 366.839 
20 *41:145 *41:151 2.625 
21 *41:151 *41:163 12.9885 
22 *41:163 *41:165 81.1071 
23 *41:165 *41:173 29.4991 
24 *41:173 *41:179 24.5886 
25 *41:179 *41:181 68.6339 
26 *41:181 *41:185 24.75 
27 *41:185 *344:s2 9.83929 
28 *41:185 *41:210 17.7748 
29 *41:210 *41:212 82.0893 
30 *41:212 *41:216 4.61007 
31 *41:216 *41:224 26.4009 
32 *41:224 *41:226 83.7411 
33 *41:226 *342:s2 23.4911 
34 *41:216 *343:s2 12.6421 
35 *41:173 *345:s2 21.2248 
36 *41:151 *346:s2 1.88393 
37 *41:125 *337:s2 0.348214 
*END

*D_NET *52 0.409214
*CONN
*P io_in[2] I
*I *346:s3 I *D sky130_osu_ring_oscillator_mpr2xa_8_b0r1
*I *342:s3 I *D sky130_osu_ring_oscillator_mpr2ca_8_b0r1
*I *343:s3 I *D sky130_osu_ring_oscillator_mpr2ct_8_b0r1
*I *344:s3 I *D sky130_osu_ring_oscillator_mpr2ea_8_b0r1
*I *345:s3 I *D sky130_osu_ring_oscillator_mpr2et_8_b0r1
*I *337:s3 I *D sky130_osu_ring_oscillator_mpr2ca_8_b0r2
*I *338:s3 I *D sky130_osu_ring_oscillator_mpr2ct_8_b0r2
*I *339:s3 I *D sky130_osu_ring_oscillator_mpr2ea_8_b0r2
*I *340:s3 I *D sky130_osu_ring_oscillator_mpr2et_8_b0r2
*I *341:s3 I *D sky130_osu_ring_oscillator_mpr2xa_8_b0r2
*CAP
1 io_in[2] 0.0102104
2 *346:s3 0.000300122
3 *342:s3 0.00209603
4 *343:s3 0.0028137
5 *344:s3 0.00276119
6 *345:s3 0.00208723
7 *337:s3 0.000101656
8 *338:s3 0.00202425
9 *339:s3 0.00213802
10 *340:s3 0.00181786
11 *341:s3 0.00248056
12 *52:280 0.00393207
13 *52:278 0.00407094
14 *52:251 0.00890639
15 *52:249 0.00421696
16 *52:217 0.00620678
17 *52:215 0.00308644
18 *52:187 0.00261638
19 *52:183 0.00202787
20 *52:181 0.00468844
21 *52:167 0.00380806
22 *52:163 0.0178548
23 *52:161 0.0176024
24 *52:146 0.00246008
25 *52:130 0.0033864
26 *52:128 0.00109379
27 *52:107 0.00219959
28 *52:103 0.00274971
29 *52:101 0.00275663
30 *52:75 0.00232027
31 *52:73 0.00286
32 *52:71 0.00286
33 *52:47 0.0023206
34 *52:43 0.00357108
35 *52:41 0.00306834
36 *52:17 0.00347829
37 *52:13 0.0613362
38 *52:11 0.0603385
39 *52:9 0.0248508
40 *52:7 0.0350612
41 *338:s3 *338:s4 0.00166275
42 *339:s3 *339:s4 0.0022232
43 *340:s3 *340:s4 0.00138482
44 *340:s3 *62:60 0.000127728
45 *341:s3 *61:39 0.000756284
46 *341:s3 *62:39 0.000104304
47 *342:s3 *342:s4 0.00222294
48 *344:s3 *61:204 0
49 *345:s3 *62:194 0.000129345
50 *345:s3 *310:22 0.000562133
51 *346:s3 *296:11 0
52 *52:43 *61:41 5.05693e-05
53 *52:43 *256:14 0
54 *52:43 *273:18 0
55 *52:47 *340:s4 4.32593e-05
56 *52:47 *61:45 0.00135266
57 *52:47 *62:60 0.000180591
58 *52:73 *61:73 0.00720567
59 *52:73 *62:74 0.000293624
60 *52:101 *339:s4 6.67536e-05
61 *52:101 *61:103 0.000316931
62 *52:103 *61:105 0.00747828
63 *52:103 *270:18 0.00156984
64 *52:107 *338:s4 7.14719e-05
65 *52:107 *61:109 0.000314028
66 *52:130 *61:130 0.00488475
67 *52:130 *61:138 0.000317098
68 *52:130 *62:104 0.00595574
69 *52:146 *337:s4 0.000186606
70 *52:146 *61:138 0.00311743
71 *52:146 *61:142 2.28954e-07
72 *52:146 *62:104 1.34223e-05
73 *52:146 *62:108 0.000395741
74 *52:146 *62:126 0.000415898
75 *52:163 *296:11 4.46186e-06
76 *52:163 *296:13 0
77 *52:167 *264:14 0.000233377
78 *52:167 *296:11 0
79 *52:181 *346:s4 0.000221625
80 *52:181 *61:172 0.00163904
81 *52:181 *62:140 0
82 *52:181 *270:18 0
83 *52:181 *295:22 0.000249455
84 *52:183 *61:174 0.00612572
85 *52:183 *61:198 0.000982315
86 *52:183 *326:11 0.00729831
87 *52:187 *61:198 0.000260555
88 *52:187 *62:194 2.00203e-06
89 *52:187 *310:22 0.000376927
90 *52:217 *61:200 0.0072096
91 *52:217 *62:208 0.000927664
92 *52:249 *62:208 0.000467746
93 *52:251 *61:254 0.00175762
94 *52:251 *62:208 0
95 *52:251 *62:212 0
96 *52:278 *61:256 0
97 *52:280 *61:256 0.00212105
98 *341:s2 *341:s3 0.00279353
99 *41:13 *52:13 0
100 *41:43 *52:43 0.00787644
101 *41:49 *340:s3 0.000688716
102 *41:49 *52:47 1.39702e-05
*RES
1 io_in[2] *52:7 33.0169 
2 *52:7 *52:9 511.339 
3 *52:9 *52:11 3.41 
4 *52:11 *52:13 180.033 
5 *52:13 *52:17 3.26337 
6 *52:17 *341:s3 30.9953 
7 *52:17 *52:41 3.41 
8 *52:41 *52:43 98.4821 
9 *52:43 *52:47 5.76313 
10 *52:47 *340:s3 28.0774 
11 *52:47 *52:71 3.41 
12 *52:71 *52:73 89.9821 
13 *52:73 *52:75 3.41 
14 *52:75 *339:s3 25.3722 
15 *52:75 *52:101 4.03353 
16 *52:101 *52:103 92.4107 
17 *52:103 *52:107 4.03353 
18 *52:107 *338:s3 21.4287 
19 *52:107 *52:128 3.41 
20 *52:128 *52:130 72.9821 
21 *52:130 *52:146 26.5518 
22 *52:146 *337:s3 3.75545 
23 *52:146 *52:161 3.64657 
24 *52:161 *52:163 360.964 
25 *52:163 *52:167 6.375 
26 *52:167 *52:181 42.0382 
27 *52:181 *52:183 91.1964 
28 *52:183 *52:187 5.11453 
29 *52:187 *345:s3 24.1349 
30 *52:187 *52:215 3.41 
31 *52:215 *52:217 96.0536 
32 *52:217 *344:s3 31.0921 
33 *52:217 *52:249 9.28571 
34 *52:249 *52:251 86.6607 
35 *52:251 *343:s3 27.8429 
36 *52:251 *52:278 45.1429 
37 *52:278 *52:280 50.1786 
38 *52:280 *342:s3 26.4493 
39 *52:167 *346:s3 6.1875 
*END

*D_NET *61 0.386815
*CONN
*P io_in[3] I
*I *337:s4 I *D sky130_osu_ring_oscillator_mpr2ca_8_b0r2
*I *342:s4 I *D sky130_osu_ring_oscillator_mpr2ca_8_b0r1
*I *343:s4 I *D sky130_osu_ring_oscillator_mpr2ct_8_b0r1
*I *344:s4 I *D sky130_osu_ring_oscillator_mpr2ea_8_b0r1
*I *345:s4 I *D sky130_osu_ring_oscillator_mpr2et_8_b0r1
*I *346:s4 I *D sky130_osu_ring_oscillator_mpr2xa_8_b0r1
*I *338:s4 I *D sky130_osu_ring_oscillator_mpr2ct_8_b0r2
*I *339:s4 I *D sky130_osu_ring_oscillator_mpr2ea_8_b0r2
*I *340:s4 I *D sky130_osu_ring_oscillator_mpr2et_8_b0r2
*I *341:s4 I *D sky130_osu_ring_oscillator_mpr2xa_8_b0r2
*CAP
1 io_in[3] 0.069216
2 *337:s4 9.26635e-05
3 *342:s4 0.00109003
4 *343:s4 0.000441286
5 *344:s4 0.000419605
6 *345:s4 0.00123505
7 *346:s4 0.000401871
8 *338:s4 0.00109367
9 *339:s4 0.00134287
10 *340:s4 0.000984341
11 *341:s4 0.00087869
12 *61:256 0.00500622
13 *61:254 0.00591457
14 *61:230 0.00257001
15 *61:226 0.00391862
16 *61:224 0.00378827
17 *61:204 0.00158134
18 *61:200 0.00427809
19 *61:198 0.00402348
20 *61:174 0.00330821
21 *61:172 0.00297741
22 *61:146 0.00221323
23 *61:144 0.0120183
24 *61:142 0.0120354
25 *61:138 0.00206965
26 *61:130 0.00395613
27 *61:128 0.00199626
28 *61:109 0.00126965
29 *61:105 0.00303601
30 *61:103 0.00303315
31 *61:75 0.00151599
32 *61:73 0.00306982
33 *61:71 0.00306982
34 *61:45 0.00127267
35 *61:41 0.00343933
36 *61:39 0.00335262
37 *61:28 6.15062e-06
38 *61:9 0.0144602
39 *61:7 0.0133861
40 *61:5 0.069216
41 *341:s4 *341:s5 0.000544465
42 *343:s4 *309:8 0
43 *345:s4 *345:s5 0.000571472
44 *345:s4 *311:8 0
45 *345:s4 *327:9 4.07223e-05
46 *61:9 *62:9 0.0124816
47 *61:9 *62:39 0.000105716
48 *61:39 *62:39 9.48139e-05
49 *61:41 *62:41 0
50 *61:41 *62:60 0
51 *61:105 *270:18 2.2355e-05
52 *61:130 *270:18 0
53 *61:138 *62:126 2.2355e-05
54 *61:138 *270:18 0
55 *61:144 *312:9 0.0260329
56 *61:172 *62:140 0
57 *61:172 *62:160 0.0011121
58 *61:174 *62:162 0.00651179
59 *61:174 *326:11 0.000149867
60 *61:198 *62:194 0.000205026
61 *61:254 *62:212 0
62 *61:254 *62:238 0
63 *61:254 *62:240 0
64 *61:256 *342:s5 0
65 *61:256 *62:240 0
66 *338:s3 *338:s4 0.00166275
67 *339:s3 *339:s4 0.0022232
68 *340:s3 *340:s4 0.00138482
69 *341:s2 *341:s4 0.00336285
70 *341:s2 *61:39 0.000756284
71 *341:s3 *61:39 0.000756284
72 *342:s3 *342:s4 0.00222294
73 *344:s3 *61:204 0
74 *30:19 *341:s4 0.00236987
75 *41:43 *61:41 0.00792282
76 *41:49 *340:s4 0.000820262
77 *41:49 *61:45 0.000735448
78 *52:43 *61:41 5.05693e-05
79 *52:47 *340:s4 4.32593e-05
80 *52:47 *61:45 0.00135266
81 *52:73 *61:73 0.00720567
82 *52:101 *339:s4 6.67536e-05
83 *52:101 *61:103 0.000316931
84 *52:103 *61:105 0.00747828
85 *52:107 *338:s4 7.14719e-05
86 *52:107 *61:109 0.000314028
87 *52:130 *61:130 0.00488475
88 *52:130 *61:138 0.000317098
89 *52:146 *337:s4 0.000186606
90 *52:146 *61:138 0.00311743
91 *52:146 *61:142 2.28954e-07
92 *52:181 *346:s4 0.000221625
93 *52:181 *61:172 0.00163904
94 *52:183 *61:174 0.00612572
95 *52:183 *61:198 0.000982315
96 *52:187 *61:198 0.000260555
97 *52:217 *61:200 0.0072096
98 *52:251 *61:254 0.00175762
99 *52:278 *61:256 0
100 *52:280 *61:256 0.00212105
*RES
1 io_in[3] *61:5 213.953 
2 *61:5 *61:7 3.41 
3 *61:7 *61:9 332.232 
4 *61:9 *341:s4 28.7165 
5 *341:s4 *61:28 0.129464 
6 *61:9 *61:39 9.35935 
7 *61:39 *61:41 98.4821 
8 *61:41 *61:45 5.54693 
9 *61:45 *340:s4 25.6732 
10 *61:45 *61:71 3.41 
11 *61:71 *61:73 91.1964 
12 *61:73 *61:75 3.41 
13 *61:75 *339:s4 23.8281 
14 *61:75 *61:103 4.03353 
15 *61:103 *61:105 92.4107 
16 *61:105 *61:109 4.03353 
17 *61:109 *338:s4 19.291 
18 *61:109 *61:128 3.41 
19 *61:128 *61:130 60.875 
20 *61:130 *61:138 35.3094 
21 *61:138 *61:142 3.49303 
22 *61:142 *61:144 365.625 
23 *61:144 *61:146 3.41 
24 *61:146 *346:s4 8.02716 
25 *61:146 *61:172 29.1579 
26 *61:172 *61:174 80.1161 
27 *61:174 *345:s4 34.4509 
28 *61:174 *61:198 20.9442 
29 *61:198 *61:200 92.4107 
30 *61:200 *61:204 6.84413 
31 *61:204 *344:s4 6.7004 
32 *61:204 *61:224 3.41 
33 *61:224 *61:226 77.2321 
34 *61:226 *61:230 3.81733 
35 *61:230 *343:s4 16.6957 
36 *61:230 *61:254 31.4024 
37 *61:254 *61:256 92.6964 
38 *61:256 *342:s4 22.5991 
39 *61:138 *337:s4 3.85807 
*END

*D_NET *62 0.295158
*CONN
*P io_in[4] I
*I *342:s5 I *D sky130_osu_ring_oscillator_mpr2ca_8_b0r1
*I *343:s5 I *D sky130_osu_ring_oscillator_mpr2ct_8_b0r1
*I *344:s5 I *D sky130_osu_ring_oscillator_mpr2ea_8_b0r1
*I *345:s5 I *D sky130_osu_ring_oscillator_mpr2et_8_b0r1
*I *346:s5 I *D sky130_osu_ring_oscillator_mpr2xa_8_b0r1
*I *337:s5 I *D sky130_osu_ring_oscillator_mpr2ca_8_b0r2
*I *338:s5 I *D sky130_osu_ring_oscillator_mpr2ct_8_b0r2
*I *339:s5 I *D sky130_osu_ring_oscillator_mpr2ea_8_b0r2
*I *340:s5 I *D sky130_osu_ring_oscillator_mpr2et_8_b0r2
*I *341:s5 I *D sky130_osu_ring_oscillator_mpr2xa_8_b0r2
*CAP
1 io_in[4] 0.0692485
2 *342:s5 0.000233708
3 *343:s5 0.000152248
4 *344:s5 0.00456826
5 *345:s5 0.0013868
6 *346:s5 0.000221515
7 *337:s5 0.0002249
8 *338:s5 7.57787e-05
9 *339:s5 0.00400825
10 *340:s5 0.00024164
11 *341:s5 0.000943544
12 *62:240 0.00449426
13 *62:238 0.00488742
14 *62:212 0.00139347
15 *62:208 0.00414362
16 *62:206 0.00378986
17 *62:194 0.00516146
18 *62:162 0.00302871
19 *62:160 0.00367364
20 *62:140 0.00201727
21 *62:132 0.01319
22 *62:130 0.0125984
23 *62:128 0.00499495
24 *62:126 0.00531825
25 *62:115 3.26454e-06
26 *62:108 0.000987671
27 *62:104 0.00294312
28 *62:102 0.00330457
29 *62:74 0.005127
30 *62:72 0.004493
31 *62:60 0.00556838
32 *62:41 0.00608525
33 *62:39 0.00455378
34 *62:9 0.00613386
35 *62:7 0.00470027
36 *62:5 0.0692485
37 *337:s5 *269:10 0
38 *337:s5 *317:9 5.39166e-06
39 *340:s5 *320:7 0
40 *345:s5 *327:9 3.06878e-06
41 *62:74 *270:18 0
42 *62:102 *270:18 0
43 *62:104 *270:18 0
44 *62:115 *269:10 0
45 *62:132 *264:20 7.87409e-06
46 *62:140 *264:20 0.000497423
47 *62:140 *328:8 0
48 *62:162 *326:11 1.37595e-05
49 *340:s3 *62:60 0.000127728
50 *341:s3 *62:39 0.000104304
51 *341:s4 *341:s5 0.000544465
52 *345:s3 *62:194 0.000129345
53 *345:s4 *345:s5 0.000571472
54 *30:19 *341:s5 0.000822144
55 *52:47 *62:60 0.000180591
56 *52:73 *62:74 0.000293624
57 *52:130 *62:104 0.00595574
58 *52:146 *62:104 1.34223e-05
59 *52:146 *62:108 0.000395741
60 *52:146 *62:126 0.000415898
61 *52:181 *62:140 0
62 *52:187 *62:194 2.00203e-06
63 *52:217 *62:208 0.000927664
64 *52:249 *62:208 0.000467746
65 *52:251 *62:208 0
66 *52:251 *62:212 0
67 *61:9 *62:9 0.0124816
68 *61:9 *62:39 0.000105716
69 *61:39 *62:39 9.48139e-05
70 *61:41 *62:41 0
71 *61:41 *62:60 0
72 *61:138 *62:126 2.2355e-05
73 *61:172 *62:140 0
74 *61:172 *62:160 0.0011121
75 *61:174 *62:162 0.00651179
76 *61:198 *62:194 0.000205026
77 *61:254 *62:212 0
78 *61:254 *62:238 0
79 *61:254 *62:240 0
80 *61:256 *342:s5 0
81 *61:256 *62:240 0
*RES
1 io_in[4] *62:5 214.025 
2 *62:5 *62:7 3.41 
3 *62:7 *62:9 153.125 
4 *62:9 *341:s5 25.2529 
5 *62:9 *62:39 13.1049 
6 *62:39 *62:41 79.8125 
7 *62:41 *340:s5 9.14286 
8 *62:41 *62:60 28.7911 
9 *62:60 *339:s5 77.3839 
10 *339:s5 *62:72 8.66964 
11 *62:72 *62:74 89.6786 
12 *62:74 *338:s5 5.84821 
13 *62:74 *62:102 25.3482 
14 *62:102 *62:104 79.0536 
15 *62:104 *62:108 9.91964 
16 *62:108 *337:s5 8.73214 
17 *337:s5 *62:115 0.194444 
18 *62:108 *62:126 8.88393 
19 *62:126 *62:128 102.214 
20 *62:128 *62:130 0.535714 
21 *62:130 *62:132 258.875 
22 *62:132 *62:140 19.7589 
23 *62:140 *346:s5 4.50893 
24 *62:140 *62:160 21.7401 
25 *62:160 *62:162 80.4196 
26 *62:162 *345:s5 20.8571 
27 *345:s5 *62:194 22.2949 
28 *62:194 *344:s5 87.7054 
29 *344:s5 *62:206 9.49107 
30 *62:206 *62:208 78.2946 
31 *62:208 *62:212 12.1964 
32 *62:212 *343:s5 7.35714 
33 *62:212 *62:238 14.6773 
34 *62:238 *62:240 86.9464 
35 *62:240 *342:s5 9.10714 
*END

*D_NET *63 0.25389
*CONN
*P io_in[5] I
*I *342:start I *D sky130_osu_ring_oscillator_mpr2ca_8_b0r1
*I *343:start I *D sky130_osu_ring_oscillator_mpr2ct_8_b0r1
*I *344:start I *D sky130_osu_ring_oscillator_mpr2ea_8_b0r1
*I *345:start I *D sky130_osu_ring_oscillator_mpr2et_8_b0r1
*I *346:start I *D sky130_osu_ring_oscillator_mpr2xa_8_b0r1
*I *337:start I *D sky130_osu_ring_oscillator_mpr2ca_8_b0r2
*I *338:start I *D sky130_osu_ring_oscillator_mpr2ct_8_b0r2
*I *339:start I *D sky130_osu_ring_oscillator_mpr2ea_8_b0r2
*I *340:start I *D sky130_osu_ring_oscillator_mpr2et_8_b0r2
*I *341:start I *D sky130_osu_ring_oscillator_mpr2xa_8_b0r2
*CAP
1 io_in[5] 0.00107232
2 *342:start 0.000522336
3 *343:start 0.000540176
4 *344:start 0.00061521
5 *345:start 0.000539699
6 *346:start 0.000599226
7 *337:start 0.000590723
8 *338:start 0.00060187
9 *339:start 0.000600669
10 *340:start 0.000570596
11 *341:start 0.00216595
12 *63:137 0.00508888
13 *63:132 0
14 *63:125 0.00975923
15 *63:111 0.00971935
16 *63:97 0.00957806
17 *63:83 0.0235034
18 *63:65 0.0233925
19 *63:53 0.00965274
20 *63:41 0.00973376
21 *63:29 0.00813464
22 *63:15 0.00516345
23 *63:13 0.065038
24 *63:11 0.0661104
25 *337:s1 *337:start 5.84502e-05
26 *339:s2 *339:start 4.83019e-06
27 *340:s1 *340:start 9.84729e-05
28 *342:s2 *342:start 2.49027e-05
29 *345:s1 *345:start 8.60361e-05
30 *30:90 *338:start 7.89897e-06
31 *30:162 *345:start 0.000315806
*RES
1 io_in[5] *63:11 13.2693 
2 *63:11 *63:13 1296.75 
3 *63:13 *63:15 4.5 
4 *63:15 *341:start 48.4375 
5 *63:15 *63:29 61.4464 
6 *63:29 *340:start 15.8795 
7 *63:29 *63:41 93.9286 
8 *63:41 *339:start 15.9375 
9 *63:41 *63:53 93.9286 
10 *63:53 *338:start 15.9911 
11 *63:53 *63:65 92.1071 
12 *63:65 *337:start 17.2946 
13 *63:65 *63:83 376.857 
14 *63:83 *346:start 16.0804 
15 *63:83 *63:97 93.9286 
16 *63:97 *345:start 16.1339 
17 *63:97 *63:111 91.5 
18 *63:111 *344:start 16.4018 
19 *63:111 *63:125 95.1429 
20 *63:125 *343:start 14.8929 
21 *343:start *63:132 0.134615 
22 *63:125 *63:137 93.9286 
23 *63:137 *342:start 14.8304 
*END

*D_NET *64 0.116929
*CONN
*P io_in[6] I
*I *335:select[0] I *D mux16x1_project
*I *334:select[0] I *D mux16x1_project
*I *333:select[0] I *D mux16x1_project
*I *332:select[0] I *D mux16x1_project
*I *336:select[0] I *D mux16x1_project
*CAP
1 io_in[6] 0.0138832
2 *335:select[0] 7.44102e-05
3 *334:select[0] 7.44102e-05
4 *333:select[0] 7.28368e-05
5 *332:select[0] 0.000466051
6 *336:select[0] 0.000488386
7 *64:89 0.00515697
8 *64:87 0.00505746