*SPEF "ieee 1481-1999"
*DESIGN "user_project_wrapper"
*DATE "11:11:11 Fri 11 11, 1111"
*VENDOR "OpenRCX"
*PROGRAM "Parallel Extraction"
*VERSION "1.0"
*DESIGN_FLOW "NAME_SCOPE LOCAL" "PIN_CAP NONE"
*DIVIDER /
*DELIMITER :
*BUS_DELIMITER []
*T_UNIT 1 NS
*C_UNIT 1 PF
*R_UNIT 1 OHM
*L_UNIT 1 HENRY

*NAME_MAP
*1 analog_io[0]
*2 analog_io[10]
*3 analog_io[11]
*4 analog_io[12]
*5 analog_io[13]
*6 analog_io[14]
*7 analog_io[15]
*8 analog_io[16]
*9 analog_io[17]
*10 analog_io[18]
*11 analog_io[19]
*12 analog_io[1]
*13 analog_io[20]
*14 analog_io[21]
*15 analog_io[22]
*16 analog_io[23]
*17 analog_io[24]
*18 analog_io[25]
*19 analog_io[26]
*20 analog_io[27]
*21 analog_io[28]
*22 analog_io[2]
*23 analog_io[3]
*24 analog_io[4]
*25 analog_io[5]
*26 analog_io[6]
*27 analog_io[7]
*28 analog_io[8]
*29 analog_io[9]
*30 io_in[0]
*31 io_in[10]
*32 io_in[11]
*33 io_in[12]
*34 io_in[13]
*35 io_in[14]
*36 io_in[15]
*37 io_in[16]
*38 io_in[17]
*39 io_in[18]
*40 io_in[19]
*41 io_in[1]
*42 io_in[20]
*43 io_in[21]
*44 io_in[22]
*45 io_in[23]
*46 io_in[24]
*47 io_in[25]
*48 io_in[26]
*49 io_in[27]
*50 io_in[28]
*51 io_in[29]
*52 io_in[2]
*53 io_in[30]
*54 io_in[31]
*55 io_in[32]
*56 io_in[33]
*57 io_in[34]
*58 io_in[35]
*59 io_in[36]
*60 io_in[37]
*61 io_in[3]
*62 io_in[4]
*63 io_in[5]
*64 io_in[6]
*65 io_in[7]
*66 io_in[8]
*67 io_in[9]
*68 io_oeb[0]
*69 io_oeb[10]
*70 io_oeb[11]
*71 io_oeb[12]
*72 io_oeb[13]
*73 io_oeb[14]
*74 io_oeb[15]
*75 io_oeb[16]
*76 io_oeb[17]
*77 io_oeb[18]
*78 io_oeb[19]
*79 io_oeb[1]
*80 io_oeb[20]
*81 io_oeb[21]
*82 io_oeb[22]
*83 io_oeb[23]
*84 io_oeb[24]
*85 io_oeb[25]
*86 io_oeb[26]
*87 io_oeb[27]
*88 io_oeb[28]
*89 io_oeb[29]
*90 io_oeb[2]
*91 io_oeb[30]
*92 io_oeb[31]
*93 io_oeb[32]
*94 io_oeb[33]
*95 io_oeb[34]
*96 io_oeb[35]
*97 io_oeb[36]
*98 io_oeb[37]
*99 io_oeb[3]
*100 io_oeb[4]
*101 io_oeb[5]
*102 io_oeb[6]
*103 io_oeb[7]
*104 io_oeb[8]
*105 io_oeb[9]
*106 io_out[0]
*107 io_out[10]
*108 io_out[11]
*109 io_out[12]
*110 io_out[13]
*111 io_out[14]
*112 io_out[15]
*113 io_out[16]
*114 io_out[17]
*115 io_out[18]
*116 io_out[19]
*117 io_out[1]
*118 io_out[20]
*119 io_out[21]
*120 io_out[22]
*121 io_out[23]
*122 io_out[24]
*123 io_out[25]
*124 io_out[26]
*125 io_out[27]
*126 io_out[28]
*127 io_out[29]
*128 io_out[2]
*129 io_out[30]
*130 io_out[31]
*131 io_out[32]
*132 io_out[33]
*133 io_out[34]
*134 io_out[35]
*135 io_out[36]
*136 io_out[37]
*137 io_out[3]
*138 io_out[4]
*139 io_out[5]
*140 io_out[6]
*141 io_out[7]
*142 io_out[8]
*143 io_out[9]
*146 wb_clk_i
*147 wb_rst_i
*148 wbs_ack_o
*149 wbs_adr_i[0]
*150 wbs_adr_i[10]
*151 wbs_adr_i[11]
*152 wbs_adr_i[12]
*153 wbs_adr_i[13]
*154 wbs_adr_i[14]
*155 wbs_adr_i[15]
*156 wbs_adr_i[16]
*157 wbs_adr_i[17]
*158 wbs_adr_i[18]
*159 wbs_adr_i[19]
*160 wbs_adr_i[1]
*161 wbs_adr_i[20]
*162 wbs_adr_i[21]
*163 wbs_adr_i[22]
*164 wbs_adr_i[23]
*165 wbs_adr_i[24]
*166 wbs_adr_i[25]
*167 wbs_adr_i[26]
*168 wbs_adr_i[27]
*169 wbs_adr_i[28]
*170 wbs_adr_i[29]
*171 wbs_adr_i[2]
*172 wbs_adr_i[30]
*173 wbs_adr_i[31]
*174 wbs_adr_i[3]
*175 wbs_adr_i[4]
*176 wbs_adr_i[5]
*177 wbs_adr_i[6]
*178 wbs_adr_i[7]
*179 wbs_adr_i[8]
*180 wbs_adr_i[9]
*181 wbs_cyc_i
*182 wbs_dat_i[0]
*183 wbs_dat_i[10]
*184 wbs_dat_i[11]
*185 wbs_dat_i[12]
*186 wbs_dat_i[13]
*187 wbs_dat_i[14]
*188 wbs_dat_i[15]
*189 wbs_dat_i[16]
*190 wbs_dat_i[17]
*191 wbs_dat_i[18]
*192 wbs_dat_i[19]
*193 wbs_dat_i[1]
*194 wbs_dat_i[20]
*195 wbs_dat_i[21]
*196 wbs_dat_i[22]
*197 wbs_dat_i[23]
*198 wbs_dat_i[24]
*199 wbs_dat_i[25]
*200 wbs_dat_i[26]
*201 wbs_dat_i[27]
*202 wbs_dat_i[28]
*203 wbs_dat_i[29]
*204 wbs_dat_i[2]
*205 wbs_dat_i[30]
*206 wbs_dat_i[31]
*207 wbs_dat_i[3]
*208 wbs_dat_i[4]
*209 wbs_dat_i[5]
*210 wbs_dat_i[6]
*211 wbs_dat_i[7]
*212 wbs_dat_i[8]
*213 wbs_dat_i[9]
*214 wbs_dat_o[0]
*215 wbs_dat_o[10]
*216 wbs_dat_o[11]
*217 wbs_dat_o[12]
*218 wbs_dat_o[13]
*219 wbs_dat_o[14]
*220 wbs_dat_o[15]
*221 wbs_dat_o[16]
*222 wbs_dat_o[17]
*223 wbs_dat_o[18]
*224 wbs_dat_o[19]
*225 wbs_dat_o[1]
*226 wbs_dat_o[20]
*227 wbs_dat_o[21]
*228 wbs_dat_o[22]
*229 wbs_dat_o[23]
*230 wbs_dat_o[24]
*231 wbs_dat_o[25]
*232 wbs_dat_o[26]
*233 wbs_dat_o[27]
*234 wbs_dat_o[28]
*235 wbs_dat_o[29]
*236 wbs_dat_o[2]
*237 wbs_dat_o[30]
*238 wbs_dat_o[31]
*239 wbs_dat_o[3]
*240 wbs_dat_o[4]
*241 wbs_dat_o[5]
*242 wbs_dat_o[6]
*243 wbs_dat_o[7]
*244 wbs_dat_o[8]
*245 wbs_dat_o[9]
*246 wbs_sel_i[0]
*247 wbs_sel_i[1]
*248 wbs_sel_i[2]
*249 wbs_sel_i[3]
*250 wbs_stb_i
*251 wbs_we_i
*252 x1\[0\]
*253 x1\[10\]
*254 x1\[11\]
*255 x1\[12\]
*256 x1\[13\]
*257 x1\[14\]
*258 x1\[15\]
*259 x1\[1\]
*260 x1\[2\]
*261 x1\[3\]
*262 x1\[4\]
*263 x1\[5\]
*264 x1\[6\]
*265 x1\[7\]
*266 x1\[8\]
*267 x1\[9\]
*268 x2\[0\]
*269 x2\[10\]
*270 x2\[11\]
*271 x2\[12\]
*272 x2\[13\]
*273 x2\[14\]
*274 x2\[15\]
*275 x2\[1\]
*276 x2\[2\]
*277 x2\[3\]
*278 x2\[4\]
*279 x2\[5\]
*280 x2\[6\]
*281 x2\[7\]
*282 x2\[8\]
*283 x2\[9\]
*284 x3\[0\]
*285 x3\[10\]
*286 x3\[11\]
*287 x3\[12\]
*288 x3\[13\]
*289 x3\[14\]
*290 x3\[15\]
*291 x3\[1\]
*292 x3\[2\]
*293 x3\[3\]
*294 x3\[4\]
*295 x3\[5\]
*296 x3\[6\]
*297 x3\[7\]
*298 x3\[8\]
*299 x3\[9\]
*300 x4\[0\]
*301 x4\[10\]
*302 x4\[11\]
*303 x4\[12\]
*304 x4\[13\]
*305 x4\[14\]
*306 x4\[15\]
*307 x4\[1\]
*308 x4\[2\]
*309 x4\[3\]
*310 x4\[4\]
*311 x4\[5\]
*312 x4\[6\]
*313 x4\[7\]
*314 x4\[8\]
*315 x4\[9\]
*316 x5\[0\]
*317 x5\[10\]
*318 x5\[11\]
*319 x5\[12\]
*320 x5\[13\]
*321 x5\[14\]
*322 x5\[15\]
*323 x5\[1\]
*324 x5\[2\]
*325 x5\[3\]
*326 x5\[4\]
*327 x5\[5\]
*328 x5\[6\]
*329 x5\[7\]
*330 x5\[8\]
*331 x5\[9\]
*332 mprj1
*333 mprj2
*334 mprj3
*335 mprj4
*336 mprj5
*337 ro11
*338 ro12
*339 ro13
*340 ro14
*341 ro15
*342 ro3
*343 ro4
*344 ro5
*345 ro6
*346 ro7

*PORTS
analog_io[0] I
analog_io[10] I
analog_io[11] I
analog_io[12] I
analog_io[13] I
analog_io[14] I
analog_io[15] I
analog_io[16] I
analog_io[17] I
analog_io[18] I
analog_io[19] I
analog_io[1] I
analog_io[20] I
analog_io[21] I
analog_io[22] I
analog_io[23] I
analog_io[24] I
analog_io[25] I
analog_io[26] I
analog_io[27] I
analog_io[28] I
analog_io[2] I
analog_io[3] I
analog_io[4] I
analog_io[5] I
analog_io[6] I
analog_io[7] I
analog_io[8] I
analog_io[9] I
io_in[0] I
io_in[10] I
io_in[11] I
io_in[12] I
io_in[13] I
io_in[14] I
io_in[15] I
io_in[16] I
io_in[17] I
io_in[18] I
io_in[19] I
io_in[1] I
io_in[20] I
io_in[21] I
io_in[22] I
io_in[23] I
io_in[24] I
io_in[25] I
io_in[26] I
io_in[27] I
io_in[28] I
io_in[29] I
io_in[2] I
io_in[30] I
io_in[31] I
io_in[32] I
io_in[33] I
io_in[34] I
io_in[35] I
io_in[36] I
io_in[37] I
io_in[3] I
io_in[4] I
io_in[5] I
io_in[6] I
io_in[7] I
io_in[8] I
io_in[9] I
io_oeb[0] O
io_oeb[10] O
io_oeb[11] O
io_oeb[12] O
io_oeb[13] O
io_oeb[14] O
io_oeb[15] O
io_oeb[16] O
io_oeb[17] O
io_oeb[18] O
io_oeb[19] O
io_oeb[1] O
io_oeb[20] O
io_oeb[21] O
io_oeb[22] O
io_oeb[23] O
io_oeb[24] O
io_oeb[25] O
io_oeb[26] O
io_oeb[27] O
io_oeb[28] O
io_oeb[29] O
io_oeb[2] O
io_oeb[30] O
io_oeb[31] O
io_oeb[32] O
io_oeb[33] O
io_oeb[34] O
io_oeb[35] O
io_oeb[36] O
io_oeb[37] O
io_oeb[3] O
io_oeb[4] O
io_oeb[5] O
io_oeb[6] O
io_oeb[7] O
io_oeb[8] O
io_oeb[9] O
io_out[0] O
io_out[10] O
io_out[11] O
io_out[12] O
io_out[13] O
io_out[14] O
io_out[15] O
io_out[16] O
io_out[17] O
io_out[18] O
io_out[19] O
io_out[1] O
io_out[20] O
io_out[21] O
io_out[22] O
io_out[23] O
io_out[24] O
io_out[25] O
io_out[26] O
io_out[27] O
io_out[28] O
io_out[29] O
io_out[2] O
io_out[30] O
io_out[31] O
io_out[32] O
io_out[33] O
io_out[34] O
io_out[35] O
io_out[36] O
io_out[37] O
io_out[3] O
io_out[4] O
io_out[5] O
io_out[6] O
io_out[7] O
io_out[8] O
io_out[9] O
wb_clk_i I
wb_rst_i I
wbs_ack_o O
wbs_adr_i[0] I
wbs_adr_i[10] I
wbs_adr_i[11] I
wbs_adr_i[12] I
wbs_adr_i[13] I
wbs_adr_i[14] I
wbs_adr_i[15] I
wbs_adr_i[16] I
wbs_adr_i[17] I
wbs_adr_i[18] I
wbs_adr_i[19] I
wbs_adr_i[1] I
wbs_adr_i[20] I
wbs_adr_i[21] I
wbs_adr_i[22] I
wbs_adr_i[23] I
wbs_adr_i[24] I
wbs_adr_i[25] I
wbs_adr_i[26] I
wbs_adr_i[27] I
wbs_adr_i[28] I
wbs_adr_i[29] I
wbs_adr_i[2] I
wbs_adr_i[30] I
wbs_adr_i[31] I
wbs_adr_i[3] I
wbs_adr_i[4] I
wbs_adr_i[5] I
wbs_adr_i[6] I
wbs_adr_i[7] I
wbs_adr_i[8] I
wbs_adr_i[9] I
wbs_cyc_i I
wbs_dat_i[0] I
wbs_dat_i[10] I
wbs_dat_i[11] I
wbs_dat_i[12] I
wbs_dat_i[13] I
wbs_dat_i[14] I
wbs_dat_i[15] I
wbs_dat_i[16] I
wbs_dat_i[17] I
wbs_dat_i[18] I
wbs_dat_i[19] I
wbs_dat_i[1] I
wbs_dat_i[20] I
wbs_dat_i[21] I
wbs_dat_i[22] I
wbs_dat_i[23] I
wbs_dat_i[24] I
wbs_dat_i[25] I
wbs_dat_i[26] I
wbs_dat_i[27] I
wbs_dat_i[28] I
wbs_dat_i[29] I
wbs_dat_i[2] I
wbs_dat_i[30] I
wbs_dat_i[31] I
wbs_dat_i[3] I
wbs_dat_i[4] I
wbs_dat_i[5] I
wbs_dat_i[6] I
wbs_dat_i[7] I
wbs_dat_i[8] I
wbs_dat_i[9] I
wbs_dat_o[0] O
wbs_dat_o[10] O
wbs_dat_o[11] O
wbs_dat_o[12] O
wbs_dat_o[13] O
wbs_dat_o[14] O
wbs_dat_o[15] O
wbs_dat_o[16] O
wbs_dat_o[17] O
wbs_dat_o[18] O
wbs_dat_o[19] O
wbs_dat_o[1] O
wbs_dat_o[20] O
wbs_dat_o[21] O
wbs_dat_o[22] O
wbs_dat_o[23] O
wbs_dat_o[24] O
wbs_dat_o[25] O
wbs_dat_o[26] O
wbs_dat_o[27] O
wbs_dat_o[28] O
wbs_dat_o[29] O
wbs_dat_o[2] O
wbs_dat_o[30] O
wbs_dat_o[31] O
wbs_dat_o[3] O
wbs_dat_o[4] O
wbs_dat_o[5] O
wbs_dat_o[6] O
wbs_dat_o[7] O
wbs_dat_o[8] O
wbs_dat_o[9] O
wbs_sel_i[0] I
wbs_sel_i[1] I
wbs_sel_i[2] I
wbs_sel_i[3] I
wbs_stb_i I
wbs_we_i I

*D_NET *30 0.345061
*CONN
*P io_in[0] I
*I *339:s1 I *D sky130_osu_ring_oscillator_mpr2ea_8_b0r2
*I *338:s1 I *D sky130_osu_ring_oscillator_mpr2ct_8_b0r2
*I *345:s1 I *D sky130_osu_ring_oscillator_mpr2et_8_b0r1
*I *342:s1 I *D sky130_osu_ring_oscillator_mpr2ca_8_b0r1
*I *343:s1 I *D sky130_osu_ring_oscillator_mpr2ct_8_b0r1
*I *344:s1 I *D sky130_osu_ring_oscillator_mpr2ea_8_b0r1
*I *346:s1 I *D sky130_osu_ring_oscillator_mpr2xa_8_b0r1
*I *337:s1 I *D sky130_osu_ring_oscillator_mpr2ca_8_b0r2
*I *340:s1 I *D sky130_osu_ring_oscillator_mpr2et_8_b0r2
*I *341:s1 I *D sky130_osu_ring_oscillator_mpr2xa_8_b0r2
*CAP
1 io_in[0] 0.0649771
2 *339:s1 0.000460465
3 *338:s1 7.27035e-05
4 *345:s1 0.000485959
5 *342:s1 0.000111311
6 *343:s1 7.49856e-06
7 *344:s1 0.000317267
8 *346:s1 0.0016534
9 *337:s1 0.000179102
10 *340:s1 0.000516872
11 *341:s1 0.000417605
12 *30:220 0.00399597
13 *30:218 0.00482682
14 *30:197 0.0020997
15 *30:187 0.00463881
16 *30:166 0.00442016
17 *30:160 0.00480612
18 *30:158 0.00447476
19 *30:150 0.000768732
20 *30:148 0.004057
21 *30:146 0.00513489
22 *30:114 0.0172193
23 *30:112 0.0175562
24 *30:88 0.00383709
25 *30:86 0.00286336
26 *30:82 0.00074684
27 *30:72 0.00451868
28 *30:70 0.00396242
29 *30:68 0.000998336
30 *30:64 0.00358563
31 *30:49 0.00375709
32 *30:45 0.00392669
33 *30:43 0.00450777
34 *30:19 0.00340656
35 *30:9 0.0421162
36 *30:7 0.0399008
37 *30:5 0.0649771
38 *337:s1 *337:start 6.41168e-05
39 *337:s1 *41:133 0.000177368
40 *338:s1 *338:s2 6.98235e-05
41 *340:s1 *340:start 8.53011e-05
42 *345:s1 *345:start 7.44252e-05
43 *346:s1 *264:12 0
44 *30:19 *341:s2 0.00154364
45 *30:19 *341:s4 0.00201759
46 *30:19 *341:s5 0.000699509
47 *30:64 *41:95 0.00577307
48 *30:64 *41:111 0.000295917
49 *30:82 *41:115 0
50 *30:86 *338:s2 0.00027174
51 *30:86 *338:start 1.24997e-05
52 *30:88 *41:129 0.00712768
53 *30:112 *41:129 5.20249e-05
54 *30:114 *264:12 0
55 *30:148 *41:172 0
56 *30:148 *41:180 0
57 *30:158 *345:start 0.000272899
58 *30:158 *41:180 0.000212465
59 *30:160 *41:180 8.7152e-06
60 *30:160 *41:186 0
61 *30:197 *41:231 0
*RES
1 io_in[0] *30:5 174.265 
2 *30:5 *30:7 0.5 
3 *30:7 *30:9 726.345 
4 *30:9 *30:19 10.0567 
5 *30:19 *341:s1 11.3988 
6 *30:19 *30:43 6.2862 
7 *30:43 *30:45 67.875 
8 *30:45 *30:49 3.0375 
9 *30:49 *340:s1 13.275 
10 *30:49 *30:64 80.8125 
11 *30:64 *30:68 1.87813 
12 *30:68 *30:70 0.5 
13 *30:70 *30:72 72.015 
14 *30:72 *30:82 7.51777 
15 *30:82 *30:86 4.865 
16 *30:86 *30:88 79.665 
17 *30:88 *337:s1 6.6725 
18 *30:88 *30:112 5.34983 
19 *30:112 *30:114 303.21 
20 *30:114 *346:s1 10.5375 
21 *346:s1 *30:146 10.4565 
22 *30:146 *30:148 73.4175 
23 *30:148 *30:150 2 
24 *30:150 *30:158 9.2825 
25 *30:158 *30:160 76.2225 
26 *30:160 *30:166 14.8 
27 *30:166 *344:s1 5.01537 
28 *30:166 *30:187 63.345 
29 *30:187 *30:197 16.4753 
30 *30:197 *343:s1 2.1875 
31 *30:197 *30:218 9.52827 
32 *30:218 *30:220 70.725 
33 *30:220 *342:s1 1.6125 
34 *30:150 *345:s1 10.54 
35 *30:82 *338:s1 1.7025 
36 *30:68 *339:s1 4.3795 
*END

*D_NET *41 0.363997
*CONN
*P io_in[1] I
*I *346:s2 I *D sky130_osu_ring_oscillator_mpr2xa_8_b0r1
*I *345:s2 I *D sky130_osu_ring_oscillator_mpr2et_8_b0r1
*I *343:s2 I *D sky130_osu_ring_oscillator_mpr2ct_8_b0r1
*I *342:s2 I *D sky130_osu_ring_oscillator_mpr2ca_8_b0r1
*I *344:s2 I *D sky130_osu_ring_oscillator_mpr2ea_8_b0r1
*I *337:s2 I *D sky130_osu_ring_oscillator_mpr2ca_8_b0r2
*I *338:s2 I *D sky130_osu_ring_oscillator_mpr2ct_8_b0r2
*I *339:s2 I *D sky130_osu_ring_oscillator_mpr2ea_8_b0r2
*I *340:s2 I *D sky130_osu_ring_oscillator_mpr2et_8_b0r2
*I *341:s2 I *D sky130_osu_ring_oscillator_mpr2xa_8_b0r2
*CAP
1 io_in[1] 0.000786352
2 *346:s2 8.44699e-05
3 *345:s2 0.00202736
4 *343:s2 0.000348265
5 *342:s2 0.000896195
6 *344:s2 3.25916e-05
7 *337:s2 2.84855e-05
8 *338:s2 0.000896689
9 *339:s2 0.00111544
10 *340:s2 0.000660813
11 *341:s2 0.00203972
12 *41:233 0.00475874
13 *41:231 0.00589188
14 *41:223 0.00279007
15 *41:219 0.00421054
16 *41:217 0.0042776
17 *41:192 0.00147841
18 *41:188 0.00413132
19 *41:186 0.00414882
20 *41:180 0.00435931
21 *41:172 0.00509182
22 *41:170 0.00531781
23 *41:158 0.00175928
24 *41:152 0.017028
25 *41:150 0.0174581
26 *41:133 0.001394
27 *41:129 0.00366216
28 *41:115 0.0044917
29 *41:111 0.00431669
30 *41:95 0.00687877
31 *41:93 0.00414987
32 *41:82 5.9122e-06
33 *41:65 0.00500588
34 *41:59 0.00525476
35 *41:57 0.00283939
36 *41:21 0.00274309
37 *41:13 0.0682762
38 *41:11 0.0675728
39 *41:9 0.031523
40 *41:7 0.0323093
41 *339:s2 *339:start 4.93662e-06
42 *341:s2 *341:s3 0.00404079
43 *341:s2 *341:s4 0.00242766
44 *341:s2 *62:39 0.000366388
45 *342:s2 *342:start 2.35576e-05
46 *343:s2 *261:13 0.00034019
47 *346:s2 *280:8 0
48 *41:13 *52:13 0
49 *41:21 *341:s3 1.63614e-05
50 *41:21 *52:13 0.00011689
51 *41:21 *257:26 0
52 *41:21 *273:18 0
53 *41:59 *61:41 0.00707224
54 *41:59 *62:41 0
55 *41:59 *62:60 0
56 *41:65 *340:s3 0.000665222
57 *41:65 *340:s4 0.000690162
58 *41:65 *61:45 0.000658086
59 *41:152 *280:8 0
60 *41:158 *280:8 0
61 *337:s1 *41:133 0.000177368
62 *338:s1 *338:s2 6.98235e-05
63 *30:19 *341:s2 0.00154364
64 *30:64 *41:95 0.00577307
65 *30:64 *41:111 0.000295917
66 *30:82 *41:115 0
67 *30:86 *338:s2 0.00027174
68 *30:88 *41:129 0.00712768
69 *30:112 *41:129 5.20249e-05
70 *30:148 *41:172 0
71 *30:148 *41:180 0
72 *30:158 *41:180 0.000212465
73 *30:160 *41:180 8.7152e-06
74 *30:160 *41:186 0
75 *30:197 *41:231 0
*RES
1 io_in[1] *41:7 2.58747 
2 *41:7 *41:9 573.855 
3 *41:9 *41:11 0.5 
4 *41:11 *41:13 169.186 
5 *41:13 *41:21 9.60873 
6 *41:21 *341:s2 24.5324 
7 *41:21 *41:57 0.5 
8 *41:57 *41:59 79.155 
9 *41:59 *41:65 9.13707 
10 *41:65 *340:s2 10.7345 
11 *340:s2 *41:82 0.10875 
12 *41:65 *41:93 9.7678 
13 *41:93 *41:95 64.4925 
14 *41:95 *339:s2 21.8825 
15 *41:95 *41:111 65.2575 
16 *41:111 *41:115 13.9425 
17 *41:115 *338:s2 19.1375 
18 *41:115 *41:129 80.43 
19 *41:129 *41:133 17.975 
20 *41:133 *337:s2 2.22625 
21 *41:133 *41:150 11.435 
22 *41:150 *41:152 308.272 
23 *41:152 *41:158 2.205 
24 *41:158 *41:170 6.01033 
25 *41:170 *41:172 68.13 
26 *41:172 *41:180 22.3907 
27 *41:180 *41:186 18.29 
28 *41:186 *41:188 57.6525 
29 *41:188 *41:192 19.01 
30 *41:192 *344:s2 4.705 
31 *41:192 *41:217 8.40183 
32 *41:217 *41:219 68.955 
33 *41:219 *41:223 1.47027 
34 *41:223 *41:231 19.6929 
35 *41:231 *41:233 70.3425 
36 *41:233 *342:s2 17.9525 
37 *41:223 *343:s2 8.255 
38 *41:180 *345:s2 10.5483 
39 *41:158 *346:s2 1.5825 
*END

*D_NET *52 0.382439
*CONN
*P io_in[2] I
*I *346:s3 I *D sky130_osu_ring_oscillator_mpr2xa_8_b0r1
*I *342:s3 I *D sky130_osu_ring_oscillator_mpr2ca_8_b0r1
*I *343:s3 I *D sky130_osu_ring_oscillator_mpr2ct_8_b0r1
*I *344:s3 I *D sky130_osu_ring_oscillator_mpr2ea_8_b0r1
*I *345:s3 I *D sky130_osu_ring_oscillator_mpr2et_8_b0r1
*I *337:s3 I *D sky130_osu_ring_oscillator_mpr2ca_8_b0r2
*I *338:s3 I *D sky130_osu_ring_oscillator_mpr2ct_8_b0r2
*I *339:s3 I *D sky130_osu_ring_oscillator_mpr2ea_8_b0r2
*I *340:s3 I *D sky130_osu_ring_oscillator_mpr2et_8_b0r2
*I *341:s3 I *D sky130_osu_ring_oscillator_mpr2xa_8_b0r2
*CAP
1 io_in[2] 0.00953408
2 *346:s3 0.000728879
3 *342:s3 0.00188416
4 *343:s3 0.00248583
5 *344:s3 0.00258054
6 *345:s3 0.00195138
7 *337:s3 0.000422495
8 *338:s3 0.0019187
9 *339:s3 0.00202178
10 *340:s3 0.00171948
11 *341:s3 0.00203881
12 *52:277 0.00533907
13 *52:275 0.00376434
14 *52:244 0.00644512
15 *52:242 0.00398902
16 *52:210 0.00584205
17 *52:208 0.00292235
18 *52:180 0.00248359
19 *52:176 0.00325048
20 *52:174 0.00576208
21 *52:160 0.0178722
22 *52:158 0.0147157
23 *52:151 0
24 *52:136 0.00405879
25 *52:126 0.00494376
26 *52:124 0.00192374
27 *52:103 0.00205362
28 *52:99 0.00250261
29 *52:97 0.00250055
30 *52:71 0.00215463
31 *52:69 0.0028346
32 *52:67 0.0028346
33 *52:43 0.00213226
34 *52:39 0.00332016
35 *52:37 0.00290737
36 *52:13 0.0591814
37 *52:11 0.0571426
38 *52:9 0.0236001
39 *52:7 0.0331342
40 *338:s3 *338:s4 0.00141305
41 *338:s3 *61:109 3.60483e-05
42 *339:s3 *339:s4 0.00189235
43 *339:s3 *61:103 3.40883e-05
44 *340:s3 *340:s4 0.00117879
45 *340:s3 *61:45 6.0388e-05
46 *340:s3 *62:60 0.000131262
47 *341:s3 *341:s4 0.000418526
48 *341:s3 *61:39 0.000681948
49 *342:s3 *61:269 0.00189223
50 *344:s3 *61:211 0
51 *345:s3 *62:190 0.000128908
52 *345:s3 *310:22 0.000504044
53 *346:s3 *296:11 0
54 *52:39 *61:41 0.00739154
55 *52:39 *256:14 0
56 *52:39 *273:18 0
57 *52:43 *61:45 0.00116515
58 *52:43 *62:60 0.00017748
59 *52:69 *61:73 0.00653513
60 *52:97 *61:103 0.000291178
61 *52:99 *61:105 0.00689233
62 *52:99 *270:18 0.0014483
63 *52:103 *61:109 0.000289924
64 *52:126 *61:130 0.00442955
65 *52:126 *62:104 2.2142e-05
66 *52:126 *270:18 0
67 *52:136 *61:130 0.000327622
68 *52:136 *61:138 0.00110289
69 *52:136 *62:126 2.39779e-05
70 *52:136 *62:128 0
71 *52:136 *270:18 0
72 *52:160 *296:11 0
73 *52:160 *296:13 0.0102132
74 *52:174 *346:s4 0
75 *52:174 *61:183 0.00123609
76 *52:174 *62:136 0
77 *52:174 *264:14 0.00110536
78 *52:174 *270:18 0
79 *52:174 *295:22 0.000337977
80 *52:176 *61:185 0.00622844
81 *52:176 *61:205 0.000530956
82 *52:176 *326:11 6.47963e-05
83 *52:180 *61:205 0.00026771
84 *52:180 *62:190 2.06212e-06
85 *52:180 *310:22 0.000337977
86 *52:210 *61:207 0.00653834
87 *52:210 *62:204 0.000849734
88 *52:242 *62:204 0.000433288
89 *52:244 *61:259 0.00163199
90 *52:244 *62:204 0
91 *52:244 *62:208 0
92 *52:275 *61:259 0.000409258
93 *52:277 *342:s5 0
94 *52:277 *61:259 0
95 *52:277 *61:269 0.00204612
96 *52:277 *62:236 0
97 *341:s2 *341:s3 0.00404079
98 *41:13 *52:13 0
99 *41:21 *341:s3 1.63614e-05
100 *41:21 *52:13 0.00011689
101 *41:65 *340:s3 0.000665222
*RES
1 io_in[2] *52:7 24.4375 
2 *52:7 *52:9 429.525 
3 *52:9 *52:11 0.5 
4 *52:11 *52:13 148.035 
5 *52:13 *341:s3 19.3211 
6 *52:13 *52:37 0.5 
7 *52:37 *52:39 83.235 
8 *52:39 *52:43 2.34427 
9 *52:43 *340:s3 16.3763 
10 *52:43 *52:67 0.5 
11 *52:67 *52:69 75.585 
12 *52:69 *52:71 0.5 
13 *52:71 *339:s3 14.0744 
14 *52:71 *52:97 0.945867 
15 *52:97 *52:99 77.625 
16 *52:99 *52:103 0.945867 
17 *52:103 *338:s3 10.7694 
18 *52:103 *52:124 0.5 
19 *52:124 *52:126 51.645 
20 *52:126 *52:136 32.6376 
21 *52:136 *337:s3 9.54875 
22 *337:s3 *52:151 0.172941 
23 *52:136 *52:158 11.145 
24 *52:158 *52:160 290.25 
25 *52:160 *52:174 25.9159 
26 *52:174 *52:176 77.625 
27 *52:176 *52:180 1.99467 
28 *52:180 *345:s3 13.0109 
29 *52:180 *52:208 0.5 
30 *52:208 *52:210 80.685 
31 *52:210 *344:s3 16.4497 
32 *52:210 *52:242 7.8 
33 *52:242 *52:244 72.795 
34 *52:244 *343:s3 13.7143 
35 *52:244 *52:275 6.14087 
36 *52:275 *52:277 73.545 
37 *52:277 *342:s3 12.4351 
38 *52:160 *346:s3 9.09123 
*END

*D_NET *61 0.363851
*CONN
*P io_in[3] I
*I *342:s4 I *D sky130_osu_ring_oscillator_mpr2ca_8_b0r1
*I *343:s4 I *D sky130_osu_ring_oscillator_mpr2ct_8_b0r1
*I *344:s4 I *D sky130_osu_ring_oscillator_mpr2ea_8_b0r1
*I *345:s4 I *D sky130_osu_ring_oscillator_mpr2et_8_b0r1
*I *346:s4 I *D sky130_osu_ring_oscillator_mpr2xa_8_b0r1
*I *337:s4 I *D sky130_osu_ring_oscillator_mpr2ca_8_b0r2
*I *338:s4 I *D sky130_osu_ring_oscillator_mpr2ct_8_b0r2
*I *339:s4 I *D sky130_osu_ring_oscillator_mpr2ea_8_b0r2
*I *340:s4 I *D sky130_osu_ring_oscillator_mpr2et_8_b0r2
*I *341:s4 I *D sky130_osu_ring_oscillator_mpr2xa_8_b0r2
*CAP
1 io_in[3] 0.0645255
2 *342:s4 0.00040534
3 *343:s4 0.000415177
4 *344:s4 0.000395782
5 *345:s4 0.00108204
6 *346:s4 0.00044739
7 *337:s4 0.000150312
8 *338:s4 0.000996354
9 *339:s4 0.0012279
10 *340:s4 0.0009081
11 *341:s4 0.000863145
12 *61:269 0.00286819
13 *61:259 0.00505546
14 *61:257 0.00369326
15 *61:237 0.00163784
16 *61:233 0.00371062
17 *61:231 0.0035886
18 *61:211 0.00148593
19 *61:207 0.00404319
20 *61:205 0.00350797
21 *61:185 0.00283071
22 *61:183 0.00300035
23 *61:157 0.002254
24 *61:155 0.0113753
25 *61:153 0.0114929
26 *61:138 0.00161578
27 *61:130 0.0023387
28 *61:128 0.000990894
29 *61:109 0.00118457
30 *61:105 0.00288031
31 *61:103 0.00287911
32 *61:75 0.00141493
33 *61:73 0.00276477
34 *61:71 0.00276477
35 *61:45 0.00119152
36 *61:41 0.00156476
37 *61:39 0.00155973
38 *61:32 5.9122e-06
39 *61:11 0.00113562
40 *61:9 0.0127051
41 *61:7 0.0127051
42 *61:5 0.0645255
43 *341:s4 *341:s5 0.000420586
44 *343:s4 *309:8 0
45 *61:9 *62:9 0.0114877
46 *61:9 *62:39 0.000143371
47 *61:41 *62:60 0
48 *61:73 *62:74 0.00031423
49 *61:105 *270:18 2.2142e-05
50 *61:130 *62:104 0.00544503
51 *61:138 *62:104 1.3801e-05
52 *61:138 *62:108 0.000383535
53 *61:138 *62:126 0.000283533
54 *61:155 *312:9 0.0239734
55 *61:183 *62:136 0
56 *61:183 *62:156 0.000902838
57 *61:185 *62:158 0.00579661
58 *61:185 *326:11 0.000221501
59 *61:205 *62:190 0.000173462
60 *61:205 *326:11 0.000293227
61 *61:259 *62:208 0
62 *61:259 *62:234 0
63 *61:259 *62:236 0
64 *338:s3 *338:s4 0.00141305
65 *338:s3 *61:109 3.60483e-05
66 *339:s3 *339:s4 0.00189235
67 *339:s3 *61:103 3.40883e-05
68 *340:s3 *340:s4 0.00117879
69 *340:s3 *61:45 6.0388e-05
70 *341:s2 *341:s4 0.00242766
71 *341:s3 *341:s4 0.000418526
72 *341:s3 *61:39 0.000681948
73 *342:s3 *61:269 0.00189223
74 *344:s3 *61:211 0
75 *30:19 *341:s4 0.00201759
76 *41:59 *61:41 0.00707224
77 *41:65 *340:s4 0.000690162
78 *41:65 *61:45 0.000658086
79 *52:39 *61:41 0.00739154
80 *52:43 *61:45 0.00116515
81 *52:69 *61:73 0.00653513
82 *52:97 *61:103 0.000291178
83 *52:99 *61:105 0.00689233
84 *52:103 *61:109 0.000289924
85 *52:126 *61:130 0.00442955
86 *52:136 *61:130 0.000327622
87 *52:136 *61:138 0.00110289
88 *52:174 *346:s4 0
89 *52:174 *61:183 0.00123609
90 *52:176 *61:185 0.00622844
91 *52:176 *61:205 0.000530956
92 *52:180 *61:205 0.00026771
93 *52:210 *61:207 0.00653834
94 *52:244 *61:259 0.00163199
95 *52:275 *61:259 0.000409258
96 *52:277 *61:259 0
97 *52:277 *61:269 0.00204612
*RES
1 io_in[3] *61:5 172.984 
2 *61:5 *61:7 0.5 
3 *61:7 *61:9 279.585 
4 *61:9 *61:11 0.5 
5 *61:11 *341:s4 15.3303 
6 *341:s4 *61:32 0.10875 
7 *61:11 *61:39 1.52853 
8 *61:39 *61:41 83.235 
9 *61:41 *61:45 2.34427 
10 *61:45 *340:s4 14.331 
11 *61:45 *61:71 0.5 
12 *61:71 *61:73 76.605 
13 *61:73 *61:75 0.5 
14 *61:75 *339:s4 12.7381 
15 *61:75 *61:103 1.0624 
16 *61:103 *61:105 77.625 
17 *61:105 *61:109 1.0624 
18 *61:109 *338:s4 8.94367 
19 *61:109 *61:128 0.5 
20 *61:128 *61:130 60.795 
21 *61:130 *61:138 16.7226 
22 *61:138 *337:s4 1.0092 
23 *61:138 *61:153 0.924333 
24 *61:153 *61:155 307.125 
25 *61:155 *61:157 0.5 
26 *61:157 *346:s4 4.3497 
27 *61:157 *61:183 17.2279 
28 *61:183 *61:185 71.6325 
29 *61:185 *345:s4 20.9375 
30 *61:185 *61:205 8.47563 
31 *61:205 *61:207 77.625 
32 *61:207 *61:211 3.27653 
33 *61:211 *344:s4 3.23483 
34 *61:211 *61:231 0.5 
35 *61:231 *61:233 64.875 
36 *61:233 *61:237 0.829333 
37 *61:237 *343:s4 9.88 
38 *61:237 *61:257 3.49693 
39 *61:257 *61:259 54.45 
40 *61:259 *61:269 47.0181 
41 *61:269 *342:s4 5.6239 
*END

*D_NET *62 0.278933
*CONN
*P io_in[4] I
*I *342:s5 I *D sky130_osu_ring_oscillator_mpr2ca_8_b0r1
*I *343:s5 I *D sky130_osu_ring_oscillator_mpr2ct_8_b0r1
*I *344:s5 I *D sky130_osu_ring_oscillator_mpr2ea_8_b0r1
*I *345:s5 I *D sky130_osu_ring_oscillator_mpr2et_8_b0r1
*I *346:s5 I *D sky130_osu_ring_oscillator_mpr2xa_8_b0r1
*I *337:s5 I *D sky130_osu_ring_oscillator_mpr2ca_8_b0r2
*I *338:s5 I *D sky130_osu_ring_oscillator_mpr2ct_8_b0r2
*I *339:s5 I *D sky130_osu_ring_oscillator_mpr2ea_8_b0r2
*I *340:s5 I *D sky130_osu_ring_oscillator_mpr2et_8_b0r2
*I *341:s5 I *D sky130_osu_ring_oscillator_mpr2xa_8_b0r2
*CAP
1 io_in[4] 0.0645548
2 *342:s5 0.000217327
3 *343:s5 0.000139965
4 *344:s5 0.00432169
5 *345:s5 0.00137689
6 *346:s5 0.000227773
7 *337:s5 0.000210168
8 *338:s5 6.94531e-05
9 *339:s5 0.00379568
10 *340:s5 0.000226443
11 *341:s5 0.000886627
12 *62:236 0.00425349
13 *62:234 0.0046229
14 *62:208 0.00131181
15 *62:204 0.00392717
16 *62:202 0.00358549
17 *62:190 0.0049168
18 *62:158 0.00173591
19 *62:156 0.00223206
20 *62:136 0.00190681
21 *62:128 0.0173034
22 *62:126 0.0169421
23 *62:115 3.03481e-06
24 *62:108 0.00090166
25 *62:104 0.00256111
26 *62:102 0.00303796
27 *62:74 0.00499337
28 *62:72 0.00424064
29 *62:60 0.00524772
30 *62:41 0.00575347
31 *62:39 0.00429077
32 *62:9 0.00574745
33 *62:7 0.00444018
34 *62:5 0.0645548
35 *337:s5 *269:7 0
36 *337:s5 *317:9 0
37 *340:s5 *320:7 0
38 *345:s5 *327:9 1.23408e-05
39 *62:74 *270:18 0
40 *62:102 *270:18 0
41 *62:115 *269:7 0
42 *62:128 *270:18 0
43 *62:136 *264:20 0.000345903
44 *62:136 *328:8 0
45 *62:158 *326:11 0.00583894
46 *340:s3 *62:60 0.000131262
47 *341:s2 *62:39 0.000366388
48 *341:s4 *341:s5 0.000420586
49 *345:s3 *62:190 0.000128908
50 *30:19 *341:s5 0.000699509
51 *41:59 *62:41 0
52 *41:59 *62:60 0
53 *52:43 *62:60 0.00017748
54 *52:126 *62:104 2.2142e-05
55 *52:136 *62:126 2.39779e-05
56 *52:136 *62:128 0
57 *52:174 *62:136 0
58 *52:180 *62:190 2.06212e-06
59 *52:210 *62:204 0.000849734
60 *52:242 *62:204 0.000433288
61 *52:244 *62:204 0
62 *52:244 *62:208 0
63 *52:277 *342:s5 0
64 *52:277 *62:236 0
65 *61:9 *62:9 0.0114877
66 *61:9 *62:39 0.000143371
67 *61:41 *62:60 0
68 *61:73 *62:74 0.00031423
69 *61:130 *62:104 0.00544503
70 *61:138 *62:104 1.3801e-05
71 *61:138 *62:108 0.000383535
72 *61:138 *62:126 0.000283533
73 *61:183 *62:136 0
74 *61:183 *62:156 0.000902838
75 *61:185 *62:158 0.00579661
76 *61:205 *62:190 0.000173462
77 *61:259 *62:208 0
78 *61:259 *62:234 0
79 *61:259 *62:236 0
*RES
1 io_in[4] *62:5 173.042 
2 *62:5 *62:7 0.5 
3 *62:7 *62:9 128.625 
4 *62:9 *341:s5 12.8359 
5 *62:9 *62:39 6.2574 
6 *62:39 *62:41 67.0425 
7 *62:41 *340:s5 5.9 
8 *62:41 *62:60 19.3748 
9 *62:60 *339:s5 65.0025 
10 *339:s5 *62:72 5.5025 
11 *62:72 *62:74 75.33 
12 *62:74 *338:s5 3.1325 
13 *62:74 *62:102 12.6714 
14 *62:102 *62:104 62.025 
15 *62:104 *62:108 8.3325 
16 *62:108 *337:s5 5.555 
17 *337:s5 *62:115 0.163333 
18 *62:108 *62:126 6.7725 
19 *62:126 *62:128 303.21 
20 *62:128 *62:136 15.5075 
21 *62:136 *346:s5 4.1325 
22 *62:136 *62:156 11.4881 
23 *62:156 *62:158 67.5525 
24 *62:158 *345:s5 13.27 
25 *345:s5 *62:190 9.2121 
26 *62:190 *344:s5 73.6725 
27 *344:s5 *62:202 6.1925 
28 *62:202 *62:204 65.7675 
29 *62:204 *62:208 10.245 
30 *62:208 *343:s5 4.4 
31 *62:208 *62:234 7.5776 
32 *62:234 *62:236 73.035 
33 *62:236 *342:s5 5.87 
*END

*D_NET *63 0.240078
*CONN
*P io_in[5] I
*I *342:start I *D sky130_osu_ring_oscillator_mpr2ca_8_b0r1
*I *343:start I *D sky130_osu_ring_oscillator_mpr2ct_8_b0r1
*I *344:start I *D sky130_osu_ring_oscillator_mpr2ea_8_b0r1
*I *345:start I *D sky130_osu_ring_oscillator_mpr2et_8_b0r1
*I *346:start I *D sky130_osu_ring_oscillator_mpr2xa_8_b0r1
*I *337:start I *D sky130_osu_ring_oscillator_mpr2ca_8_b0r2
*I *338:start I *D sky130_osu_ring_oscillator_mpr2ct_8_b0r2
*I *339:start I *D sky130_osu_ring_oscillator_mpr2ea_8_b0r2
*I *340:start I *D sky130_osu_ring_oscillator_mpr2et_8_b0r2
*I *341:start I *D sky130_osu_ring_oscillator_mpr2xa_8_b0r2
*CAP
1 io_in[5] 0.000999978
2 *342:start 0.000490594
3 *343:start 0.00050595
4 *344:start 0.000576831
5 *345:start 0.000503179
6 *346:start 0.000561732
7 *337:start 0.000556799
8 *338:start 0.000559627
9 *339:start 0.00056057
10 *340:start 0.000534827
11 *341:start 0.00205133
12 *63:137 0.00482667
13 *63:132 0
14 *63:125 0.00925625
15 *63:111 0.00921595
16 *63:97 0.00907914
17 *63:83 0.022308
18 *63:65 0.0222068
19 *63:53 0.00915043
20 *63:41 0.00923273
21 *63:29 0.00771268
22 *63:15 0.0048931
23 *63:13 0.0613788
24 *63:11 0.0623788
25 *337:s1 *337:start 6.41168e-05
26 *339:s2 *339:start 4.93662e-06
27 *340:s1 *340:start 8.53011e-05
28 *342:s2 *342:start 2.35576e-05
29 *345:s1 *345:start 7.44252e-05
30 *30:86 *338:start 1.24997e-05
31 *30:158 *345:start 0.000272899
*RES
1 io_in[5] *63:11 6.91823 
2 *63:11 *63:13 1089.27 
3 *63:13 *63:15 2 
4 *63:15 *341:start 38.9075 
5 *63:15 *63:29 51.615 
6 *63:29 *340:start 11.5588 
7 *63:29 *63:41 78.9 
8 *63:41 *339:start 11.6075 
9 *63:41 *63:53 78.9 
10 *63:53 *338:start 11.6525 
11 *63:53 *63:65 77.37 
12 *63:65 *337:start 12.7475 
13 *63:65 *63:83 316.56 
14 *63:83 *346:start 11.7275 
15 *63:83 *63:97 78.9 
16 *63:97 *345:start 11.7725 
17 *63:97 *63:111 76.86 
18 *63:111 *344:start 11.9975 
19 *63:111 *63:125 79.92 
20 *63:125 *343:start 10.73 
21 *343:start *63:132 0.113077 
22 *63:125 *63:137 78.9 
23 *63:137 *342:start 10.6775 
*END

*D_NET *64 0.10989
*CONN
*P io_in[6] I
*I *335:select[0] I *D mux16x1_project
*I *334:select[0] I *D mux16x1_project
*I *333:select[0] I *D mux16x1_project
*I *332:select[0] I *D mux16x1_project
*I *336:select[0] I *D mux16x1_project
*CAP
1 io_in[6] 0.0129544
2 *335:select[0] 7.07784e-05
3 *334:select[0] 7.07784e-05
4 *333:select[0] 6.93138e-05
5 *332:select[0] 0.00042936
6 *336:select[0] 0.000464191
7 *64:77 0.0048683
8 *64:75 0.00478152
9 *64:69 0.00407333
10 *64:67 0.00397633
11 *64:63 0.00311653
12 *64:61 0.00300224
13 *64:59 0.00379838
14 *64:57 0.00386997
15 *64:55 0.00484644
16 *64:53 0.00484562
17 *64:51 0.00354693
18 *64:49 0.00390623
19 *64:41 0.00515463