*SPEF "ieee 1481-1999"
*DESIGN "user_project_wrapper"
*DATE "11:11:11 Fri 11 11, 1111"
*VENDOR "OpenRCX"
*PROGRAM "Parallel Extraction"
*VERSION "1.0"
*DESIGN_FLOW "NAME_SCOPE LOCAL" "PIN_CAP NONE"
*DIVIDER /
*DELIMITER :
*BUS_DELIMITER []
*T_UNIT 1 NS
*C_UNIT 1 PF
*R_UNIT 1 OHM
*L_UNIT 1 HENRY

*NAME_MAP
*1 analog_io[0]
*2 analog_io[10]
*3 analog_io[11]
*4 analog_io[12]
*5 analog_io[13]
*6 analog_io[14]
*7 analog_io[15]
*8 analog_io[16]
*9 analog_io[17]
*10 analog_io[18]
*11 analog_io[19]
*12 analog_io[1]
*13 analog_io[20]
*14 analog_io[21]
*15 analog_io[22]
*16 analog_io[23]
*17 analog_io[24]
*18 analog_io[25]
*19 analog_io[26]
*20 analog_io[27]
*21 analog_io[28]
*22 analog_io[2]
*23 analog_io[3]
*24 analog_io[4]
*25 analog_io[5]
*26 analog_io[6]
*27 analog_io[7]
*28 analog_io[8]
*29 analog_io[9]
*30 io_in[0]
*31 io_in[10]
*32 io_in[11]
*33 io_in[12]
*34 io_in[13]
*35 io_in[14]
*36 io_in[15]
*37 io_in[16]
*38 io_in[17]
*39 io_in[18]
*40 io_in[19]
*41 io_in[1]
*42 io_in[20]
*43 io_in[21]
*44 io_in[22]
*45 io_in[23]
*46 io_in[24]
*47 io_in[25]
*48 io_in[26]
*49 io_in[27]
*50 io_in[28]
*51 io_in[29]
*52 io_in[2]
*53 io_in[30]
*54 io_in[31]
*55 io_in[32]
*56 io_in[33]
*57 io_in[34]
*58 io_in[35]
*59 io_in[36]
*60 io_in[37]
*61 io_in[3]
*62 io_in[4]
*63 io_in[5]
*64 io_in[6]
*65 io_in[7]
*66 io_in[8]
*67 io_in[9]
*68 io_oeb[0]
*69 io_oeb[10]
*70 io_oeb[11]
*71 io_oeb[12]
*72 io_oeb[13]
*73 io_oeb[14]
*74 io_oeb[15]
*75 io_oeb[16]
*76 io_oeb[17]
*77 io_oeb[18]
*78 io_oeb[19]
*79 io_oeb[1]
*80 io_oeb[20]
*81 io_oeb[21]
*82 io_oeb[22]
*83 io_oeb[23]
*84 io_oeb[24]
*85 io_oeb[25]
*86 io_oeb[26]
*87 io_oeb[27]
*88 io_oeb[28]
*89 io_oeb[29]
*90 io_oeb[2]
*91 io_oeb[30]
*92 io_oeb[31]
*93 io_oeb[32]
*94 io_oeb[33]
*95 io_oeb[34]
*96 io_oeb[35]
*97 io_oeb[36]
*98 io_oeb[37]
*99 io_oeb[3]
*100 io_oeb[4]
*101 io_oeb[5]
*102 io_oeb[6]
*103 io_oeb[7]
*104 io_oeb[8]
*105 io_oeb[9]
*106 io_out[0]
*107 io_out[10]
*108 io_out[11]
*109 io_out[12]
*110 io_out[13]
*111 io_out[14]
*112 io_out[15]
*113 io_out[16]
*114 io_out[17]
*115 io_out[18]
*116 io_out[19]
*117 io_out[1]
*118 io_out[20]
*119 io_out[21]
*120 io_out[22]
*121 io_out[23]
*122 io_out[24]
*123 io_out[25]
*124 io_out[26]
*125 io_out[27]
*126 io_out[28]
*127 io_out[29]
*128 io_out[2]
*129 io_out[30]
*130 io_out[31]
*131 io_out[32]
*132 io_out[33]
*133 io_out[34]
*134 io_out[35]
*135 io_out[36]
*136 io_out[37]
*137 io_out[3]
*138 io_out[4]
*139 io_out[5]
*140 io_out[6]
*141 io_out[7]
*142 io_out[8]
*143 io_out[9]
*146 wb_clk_i
*147 wb_rst_i
*148 wbs_ack_o
*149 wbs_adr_i[0]
*150 wbs_adr_i[10]
*151 wbs_adr_i[11]
*152 wbs_adr_i[12]
*153 wbs_adr_i[13]
*154 wbs_adr_i[14]
*155 wbs_adr_i[15]
*156 wbs_adr_i[16]
*157 wbs_adr_i[17]
*158 wbs_adr_i[18]
*159 wbs_adr_i[19]
*160 wbs_adr_i[1]
*161 wbs_adr_i[20]
*162 wbs_adr_i[21]
*163 wbs_adr_i[22]
*164 wbs_adr_i[23]
*165 wbs_adr_i[24]
*166 wbs_adr_i[25]
*167 wbs_adr_i[26]
*168 wbs_adr_i[27]
*169 wbs_adr_i[28]
*170 wbs_adr_i[29]
*171 wbs_adr_i[2]
*172 wbs_adr_i[30]
*173 wbs_adr_i[31]
*174 wbs_adr_i[3]
*175 wbs_adr_i[4]
*176 wbs_adr_i[5]
*177 wbs_adr_i[6]
*178 wbs_adr_i[7]
*179 wbs_adr_i[8]
*180 wbs_adr_i[9]
*181 wbs_cyc_i
*182 wbs_dat_i[0]
*183 wbs_dat_i[10]
*184 wbs_dat_i[11]
*185 wbs_dat_i[12]
*186 wbs_dat_i[13]
*187 wbs_dat_i[14]
*188 wbs_dat_i[15]
*189 wbs_dat_i[16]
*190 wbs_dat_i[17]
*191 wbs_dat_i[18]
*192 wbs_dat_i[19]
*193 wbs_dat_i[1]
*194 wbs_dat_i[20]
*195 wbs_dat_i[21]
*196 wbs_dat_i[22]
*197 wbs_dat_i[23]
*198 wbs_dat_i[24]
*199 wbs_dat_i[25]
*200 wbs_dat_i[26]
*201 wbs_dat_i[27]
*202 wbs_dat_i[28]
*203 wbs_dat_i[29]
*204 wbs_dat_i[2]
*205 wbs_dat_i[30]
*206 wbs_dat_i[31]
*207 wbs_dat_i[3]
*208 wbs_dat_i[4]
*209 wbs_dat_i[5]
*210 wbs_dat_i[6]
*211 wbs_dat_i[7]
*212 wbs_dat_i[8]
*213 wbs_dat_i[9]
*214 wbs_dat_o[0]
*215 wbs_dat_o[10]
*216 wbs_dat_o[11]
*217 wbs_dat_o[12]
*218 wbs_dat_o[13]
*219 wbs_dat_o[14]
*220 wbs_dat_o[15]
*221 wbs_dat_o[16]
*222 wbs_dat_o[17]
*223 wbs_dat_o[18]
*224 wbs_dat_o[19]
*225 wbs_dat_o[1]
*226 wbs_dat_o[20]
*227 wbs_dat_o[21]
*228 wbs_dat_o[22]
*229 wbs_dat_o[23]
*230 wbs_dat_o[24]
*231 wbs_dat_o[25]
*232 wbs_dat_o[26]
*233 wbs_dat_o[27]
*234 wbs_dat_o[28]
*235 wbs_dat_o[29]
*236 wbs_dat_o[2]
*237 wbs_dat_o[30]
*238 wbs_dat_o[31]
*239 wbs_dat_o[3]
*240 wbs_dat_o[4]
*241 wbs_dat_o[5]
*242 wbs_dat_o[6]
*243 wbs_dat_o[7]
*244 wbs_dat_o[8]
*245 wbs_dat_o[9]
*246 wbs_sel_i[0]
*247 wbs_sel_i[1]
*248 wbs_sel_i[2]
*249 wbs_sel_i[3]
*250 wbs_stb_i
*251 wbs_we_i
*252 x1\[0\]
*253 x1\[10\]
*254 x1\[11\]
*255 x1\[12\]
*256 x1\[13\]
*257 x1\[14\]
*258 x1\[15\]
*259 x1\[1\]
*260 x1\[2\]
*261 x1\[3\]
*262 x1\[4\]
*263 x1\[5\]
*264 x1\[6\]
*265 x1\[7\]
*266 x1\[8\]
*267 x1\[9\]
*268 x2\[0\]
*269 x2\[10\]
*270 x2\[11\]
*271 x2\[12\]
*272 x2\[13\]
*273 x2\[14\]
*274 x2\[15\]
*275 x2\[1\]
*276 x2\[2\]
*277 x2\[3\]
*278 x2\[4\]
*279 x2\[5\]
*280 x2\[6\]
*281 x2\[7\]
*282 x2\[8\]
*283 x2\[9\]
*284 x3\[0\]
*285 x3\[10\]
*286 x3\[11\]
*287 x3\[12\]
*288 x3\[13\]
*289 x3\[14\]
*290 x3\[15\]
*291 x3\[1\]
*292 x3\[2\]
*293 x3\[3\]
*294 x3\[4\]
*295 x3\[5\]
*296 x3\[6\]
*297 x3\[7\]
*298 x3\[8\]
*299 x3\[9\]
*300 x4\[0\]
*301 x4\[10\]
*302 x4\[11\]
*303 x4\[12\]
*304 x4\[13\]
*305 x4\[14\]
*306 x4\[15\]
*307 x4\[1\]
*308 x4\[2\]
*309 x4\[3\]
*310 x4\[4\]
*311 x4\[5\]
*312 x4\[6\]
*313 x4\[7\]
*314 x4\[8\]
*315 x4\[9\]
*316 x5\[0\]
*317 x5\[10\]
*318 x5\[11\]
*319 x5\[12\]
*320 x5\[13\]
*321 x5\[14\]
*322 x5\[15\]
*323 x5\[1\]
*324 x5\[2\]
*325 x5\[3\]
*326 x5\[4\]
*327 x5\[5\]
*328 x5\[6\]
*329 x5\[7\]
*330 x5\[8\]
*331 x5\[9\]
*332 mprj1
*333 mprj2
*334 mprj3
*335 mprj4
*336 mprj5
*337 ro1
*338 ro10
*339 ro11
*340 ro12
*341 ro13
*342 ro14
*343 ro15
*344 ro16
*345 ro2
*346 ro3
*347 ro4
*348 ro5
*349 ro6
*350 ro7
*351 ro8
*352 ro9

*PORTS
analog_io[0] I
analog_io[10] I
analog_io[11] I
analog_io[12] I
analog_io[13] I
analog_io[14] I
analog_io[15] I
analog_io[16] I
analog_io[17] I
analog_io[18] I
analog_io[19] I
analog_io[1] I
analog_io[20] I
analog_io[21] I
analog_io[22] I
analog_io[23] I
analog_io[24] I
analog_io[25] I
analog_io[26] I
analog_io[27] I
analog_io[28] I
analog_io[2] I
analog_io[3] I
analog_io[4] I
analog_io[5] I
analog_io[6] I
analog_io[7] I
analog_io[8] I
analog_io[9] I
io_in[0] I
io_in[10] I
io_in[11] I
io_in[12] I
io_in[13] I
io_in[14] I
io_in[15] I
io_in[16] I
io_in[17] I
io_in[18] I
io_in[19] I
io_in[1] I
io_in[20] I
io_in[21] I
io_in[22] I
io_in[23] I
io_in[24] I
io_in[25] I
io_in[26] I
io_in[27] I
io_in[28] I
io_in[29] I
io_in[2] I
io_in[30] I
io_in[31] I
io_in[32] I
io_in[33] I
io_in[34] I
io_in[35] I
io_in[36] I
io_in[37] I
io_in[3] I
io_in[4] I
io_in[5] I
io_in[6] I
io_in[7] I
io_in[8] I
io_in[9] I
io_oeb[0] O
io_oeb[10] O
io_oeb[11] O
io_oeb[12] O
io_oeb[13] O
io_oeb[14] O
io_oeb[15] O
io_oeb[16] O
io_oeb[17] O
io_oeb[18] O
io_oeb[19] O
io_oeb[1] O
io_oeb[20] O
io_oeb[21] O
io_oeb[22] O
io_oeb[23] O
io_oeb[24] O
io_oeb[25] O
io_oeb[26] O
io_oeb[27] O
io_oeb[28] O
io_oeb[29] O
io_oeb[2] O
io_oeb[30] O
io_oeb[31] O
io_oeb[32] O
io_oeb[33] O
io_oeb[34] O
io_oeb[35] O
io_oeb[36] O
io_oeb[37] O
io_oeb[3] O
io_oeb[4] O
io_oeb[5] O
io_oeb[6] O
io_oeb[7] O
io_oeb[8] O
io_oeb[9] O
io_out[0] O
io_out[10] O
io_out[11] O
io_out[12] O
io_out[13] O
io_out[14] O
io_out[15] O
io_out[16] O
io_out[17] O
io_out[18] O
io_out[19] O
io_out[1] O
io_out[20] O
io_out[21] O
io_out[22] O
io_out[23] O
io_out[24] O
io_out[25] O
io_out[26] O
io_out[27] O
io_out[28] O
io_out[29] O
io_out[2] O
io_out[30] O
io_out[31] O
io_out[32] O
io_out[33] O
io_out[34] O
io_out[35] O
io_out[36] O
io_out[37] O
io_out[3] O
io_out[4] O
io_out[5] O
io_out[6] O
io_out[7] O
io_out[8] O
io_out[9] O
wb_clk_i I
wb_rst_i I
wbs_ack_o O
wbs_adr_i[0] I
wbs_adr_i[10] I
wbs_adr_i[11] I
wbs_adr_i[12] I
wbs_adr_i[13] I
wbs_adr_i[14] I
wbs_adr_i[15] I
wbs_adr_i[16] I
wbs_adr_i[17] I
wbs_adr_i[18] I
wbs_adr_i[19] I
wbs_adr_i[1] I
wbs_adr_i[20] I
wbs_adr_i[21] I
wbs_adr_i[22] I
wbs_adr_i[23] I
wbs_adr_i[24] I
wbs_adr_i[25] I
wbs_adr_i[26] I
wbs_adr_i[27] I
wbs_adr_i[28] I
wbs_adr_i[29] I
wbs_adr_i[2] I
wbs_adr_i[30] I
wbs_adr_i[31] I
wbs_adr_i[3] I
wbs_adr_i[4] I
wbs_adr_i[5] I
wbs_adr_i[6] I
wbs_adr_i[7] I
wbs_adr_i[8] I
wbs_adr_i[9] I
wbs_cyc_i I
wbs_dat_i[0] I
wbs_dat_i[10] I
wbs_dat_i[11] I
wbs_dat_i[12] I
wbs_dat_i[13] I
wbs_dat_i[14] I
wbs_dat_i[15] I
wbs_dat_i[16] I
wbs_dat_i[17] I
wbs_dat_i[18] I
wbs_dat_i[19] I
wbs_dat_i[1] I
wbs_dat_i[20] I
wbs_dat_i[21] I
wbs_dat_i[22] I
wbs_dat_i[23] I
wbs_dat_i[24] I
wbs_dat_i[25] I
wbs_dat_i[26] I
wbs_dat_i[27] I
wbs_dat_i[28] I
wbs_dat_i[29] I
wbs_dat_i[2] I
wbs_dat_i[30] I
wbs_dat_i[31] I
wbs_dat_i[3] I
wbs_dat_i[4] I
wbs_dat_i[5] I
wbs_dat_i[6] I
wbs_dat_i[7] I
wbs_dat_i[8] I
wbs_dat_i[9] I
wbs_dat_o[0] O
wbs_dat_o[10] O
wbs_dat_o[11] O
wbs_dat_o[12] O
wbs_dat_o[13] O
wbs_dat_o[14] O
wbs_dat_o[15] O
wbs_dat_o[16] O
wbs_dat_o[17] O
wbs_dat_o[18] O
wbs_dat_o[19] O
wbs_dat_o[1] O
wbs_dat_o[20] O
wbs_dat_o[21] O
wbs_dat_o[22] O
wbs_dat_o[23] O
wbs_dat_o[24] O
wbs_dat_o[25] O
wbs_dat_o[26] O
wbs_dat_o[27] O
wbs_dat_o[28] O
wbs_dat_o[29] O
wbs_dat_o[2] O
wbs_dat_o[30] O
wbs_dat_o[31] O
wbs_dat_o[3] O
wbs_dat_o[4] O
wbs_dat_o[5] O
wbs_dat_o[6] O
wbs_dat_o[7] O
wbs_dat_o[8] O
wbs_dat_o[9] O
wbs_sel_i[0] I
wbs_sel_i[1] I
wbs_sel_i[2] I
wbs_sel_i[3] I
wbs_stb_i I
wbs_we_i I

*D_NET *30 0.390473
*CONN
*P io_in[0] I
*I *344:s1 I *D sky130_osu_ring_oscillator_mpr2ya_8_b0r2
*I *343:s1 I *D sky130_osu_ring_oscillator_mpr2xa_8_b0r2
*I *342:s1 I *D sky130_osu_ring_oscillator_mpr2et_8_b0r2
*I *350:s1 I *D sky130_osu_ring_oscillator_mpr2xa_8_b0r1
*I *347:s1 I *D sky130_osu_ring_oscillator_mpr2ct_8_b0r1
*I *345:s1 I *D sky130_osu_ring_oscillator_mpr2at_8_b0r1
*I *337:s1 I *D sky130_osu_ring_oscillator_mpr2aa_8_b0r1
*I *346:s1 I *D sky130_osu_ring_oscillator_mpr2ca_8_b0r1
*I *348:s1 I *D sky130_osu_ring_oscillator_mpr2ea_8_b0r1
*I *349:s1 I *D sky130_osu_ring_oscillator_mpr2et_8_b0r1
*I *351:s1 I *D sky130_osu_ring_oscillator_mpr2ya_8_b0r1
*I *352:s1 I *D sky130_osu_ring_oscillator_mpr2aa_8_b0r2
*I *338:s1 I *D sky130_osu_ring_oscillator_mpr2at_8_b0r2
*I *339:s1 I *D sky130_osu_ring_oscillator_mpr2ca_8_b0r2
*I *340:s1 I *D sky130_osu_ring_oscillator_mpr2ct_8_b0r2
*I *341:s1 I *D sky130_osu_ring_oscillator_mpr2ea_8_b0r2
*CAP
1 io_in[0] 0.0642872
2 *344:s1 0.000524324
3 *343:s1 3.178e-05
4 *342:s1 0.000228226
5 *350:s1 9.01483e-05
6 *347:s1 0.000150443
7 *345:s1 0.00051481
8 *337:s1 0.000710536
9 *346:s1 0.00019545
10 *348:s1 0.00038316
11 *349:s1 0.00055019
12 *351:s1 0.000112176
13 *352:s1 0.000452778
14 *338:s1 0.000553816
15 *339:s1 0.000171084
16 *340:s1 0.000398134
17 *341:s1 0.000626533
18 *30:251 0.00428338
19 *30:249 0.00364149
20 *30:245 0.000583457
21 *30:243 0.00301355
22 *30:229 0.00593029
23 *30:227 0.00311604
24 *30:223 0.00498537
25 *30:208 0.00830332
26 *30:206 0.0045762
27 *30:192 0.0059274
28 *30:190 0.00499532
29 *30:184 0.00477226
30 *30:182 0.0040938
31 *30:164 0.00102944
32 *30:148 0.00320625
33 *30:146 0.00301989
34 *30:132 0.00374942
35 *30:117 0.00488384
36 *30:109 0.00462434
37 *30:107 0.00308286
38 *30:92 0.000785245
39 *30:88 0.00310415
40 *30:86 0.00352535
41 *30:66 0.00567735
42 *30:51 0.00860915
43 *30:49 0.00535255
44 *30:35 0.00591984
45 *30:33 0.00440946
46 *30:27 0.000917308
47 *30:21 0.0028753
48 *30:19 0.00274466
49 *30:15 0.00309728
50 *30:9 0.0393882
51 *30:7 0.0371417
52 *30:5 0.0642872
53 *337:s1 *337:s2 3.52312e-06
54 *337:s1 *337:start 0
55 *337:s1 *41:406 1.8279e-05
56 *338:s1 *338:start 3.49968e-05
57 *340:s1 *340:start 0.000168066
58 *341:s1 *341:start 0.00016491
59 *346:s1 *346:start 2.57027e-05
60 *349:s1 *349:start 2.20608e-05
61 *352:s1 *352:start 8.52977e-05
62 *30:9 *62:37 0.000648974
63 *30:9 *62:39 0
64 *30:15 *41:13 0.00439763
65 *30:15 *41:21 0.00182028
66 *30:19 *41:21 0.000226646
67 *30:21 *41:23 0.00598976
68 *30:49 *41:45 0.00113229
69 *30:49 *41:75 0.00037034
70 *30:88 *41:123 0.00601462
71 *30:92 *41:127 0.000521774
72 *30:107 *41:127 0.000273161
73 *30:117 *41:155 0.00122838
74 *30:132 *41:155 0.000286821
75 *30:132 *41:161 0.00627668
76 *30:146 *41:161 0.000668869
77 *30:146 *41:185 0.000420327
78 *30:146 *41:187 0.000118514
79 *30:148 *41:187 0.00561611
80 *30:164 *351:s2 0
81 *30:182 *351:s2 0
82 *30:184 *264:10 0
83 *30:192 *41:215 0.000217986
84 *30:192 *41:263 0.000864138
85 *30:206 *41:263 0.000151023
86 *30:229 *41:363 0.00605062
87 *30:243 *41:363 0.000944675
88 *30:243 *41:386 0.00601739
89 *30:249 *345:start 5.95891e-05
90 *30:251 *41:386 0
91 *30:251 *41:406 0
*RES
1 io_in[0] *30:5 172.517 
2 *30:5 *30:7 0.5 
3 *30:7 *30:9 653.925 
4 *30:9 *30:15 9.83913 
5 *30:15 *30:19 1.61593 
6 *30:19 *30:21 68.955 
7 *30:21 *30:27 1.74007 
8 *30:27 *30:33 1.64887 
9 *30:33 *30:35 72.015 
10 *30:35 *30:49 21.5165 
11 *30:49 *30:51 66.2775 
12 *30:51 *341:s1 17.9737 
13 *30:51 *30:66 78.9 
14 *30:66 *340:s1 10.1862 
15 *30:66 *30:86 13.0512 
16 *30:86 *30:88 69.465 
17 *30:88 *30:92 2.08207 
18 *30:92 *339:s1 1.0966 
19 *30:92 *30:107 1.04087 
20 *30:107 *30:109 54.165 
21 *30:109 *30:117 27.0248 
22 *30:117 *338:s1 13.605 
23 *30:117 *30:132 77.37 
24 *30:132 *352:s1 10.2013 
25 *30:132 *30:146 16.0725 
26 *30:146 *30:148 64.875 
27 *30:148 *30:164 4.3348 
28 *30:164 *351:s1 2.4875 
29 *30:164 *30:182 0.844533 
30 *30:182 *30:184 72.015 
31 *30:184 *30:190 2.84427 
32 *30:190 *30:192 83.1075 
33 *30:192 *349:s1 11.45 
34 *30:192 *30:206 20.4525 
35 *30:206 *30:208 60.9675 
36 *30:208 *348:s1 10.4025 
37 *30:208 *30:223 77.7525 
38 *30:223 *30:227 6.945 
39 *30:227 *30:229 72.1275 
40 *30:229 *346:s1 5.46125 
41 *30:229 *30:243 80.43 
42 *30:243 *30:245 2 
43 *30:245 *30:249 3.485 
44 *30:249 *30:251 65.1075 
45 *30:251 *337:s1 14.27 
46 *30:245 *345:s1 10.5513 
47 *30:223 *347:s1 4.72625 
48 *30:184 *350:s1 1.5825 
49 *30:35 *342:s1 4.30875 
50 *30:27 *343:s1 2.83338 
51 *30:15 *344:s1 11.5296 
*END

*D_NET *41 0.417382
*CONN
*P io_in[1] I
*I *344:s2 I *D sky130_osu_ring_oscillator_mpr2ya_8_b0r2
*I *338:s2 I *D sky130_osu_ring_oscillator_mpr2at_8_b0r2
*I *337:s2 I *D sky130_osu_ring_oscillator_mpr2aa_8_b0r1
*I *345:s2 I *D sky130_osu_ring_oscillator_mpr2at_8_b0r1
*I *346:s2 I *D sky130_osu_ring_oscillator_mpr2ca_8_b0r1
*I *347:s2 I *D sky130_osu_ring_oscillator_mpr2ct_8_b0r1
*I *348:s2 I *D sky130_osu_ring_oscillator_mpr2ea_8_b0r1
*I *349:s2 I *D sky130_osu_ring_oscillator_mpr2et_8_b0r1
*I *350:s2 I *D sky130_osu_ring_oscillator_mpr2xa_8_b0r1
*I *351:s2 I *D sky130_osu_ring_oscillator_mpr2ya_8_b0r1
*I *352:s2 I *D sky130_osu_ring_oscillator_mpr2aa_8_b0r2
*I *339:s2 I *D sky130_osu_ring_oscillator_mpr2ca_8_b0r2
*I *340:s2 I *D sky130_osu_ring_oscillator_mpr2ct_8_b0r2
*I *341:s2 I *D sky130_osu_ring_oscillator_mpr2ea_8_b0r2
*I *342:s2 I *D sky130_osu_ring_oscillator_mpr2et_8_b0r2
*I *343:s2 I *D sky130_osu_ring_oscillator_mpr2xa_8_b0r2
*CAP
1 io_in[1] 0.0568432
2 *344:s2 0.00056797
3 *338:s2 0.00211332
4 *337:s2 0.002214
5 *345:s2 0.00190154
6 *346:s2 0.00176897
7 *347:s2 0.00450171
8 *348:s2 0.00336932
9 *349:s2 0.000203329
10 *350:s2 6.24322e-05
11 *351:s2 0.00180095
12 *352:s2 0.0018374
13 *339:s2 0.000265035
14 *340:s2 0.00165051
15 *341:s2 0.00173928
16 *342:s2 0.00148519
17 *343:s2 0.00164229
18 *41:406 0.0057268
19 *41:386 0.0081965
20 *41:363 0.00755749
21 *41:361 0.00511717
22 *41:319 0.00450724
23 *41:287 0.0042708
24 *41:285 0.00310334
25 *41:263 0.00444991
26 *41:243 0.0074196
27 *41:241 0.00337134
28 *41:225 0.00159905
29 *41:215 0.00559684
30 *41:210 0
31 *41:187 0.00881314
32 *41:185 0.00309913
33 *41:161 0.00477008
34 *41:159 0.00280095
35 *41:155 0.00445982
36 *41:145 0.00528211
37 *41:143 0.0032672
38 *41:127 0.00130152
39 *41:123 0.00351435
40 *41:100 0.00908685
41 *41:77 0.00655835
42 *41:75 0.0042328
43 *41:45 0.00816371
44 *41:27 0.0044694
45 *41:23 0.00280715
46 *41:21 0.00353692
47 *41:13 0.00775486
48 *41:9 0.0339121
49 *41:7 0.0277724
50 *41:5 0.0568432
51 *342:s2 *52:61 0.00253951
52 *343:s2 *52:55 0.000579817
53 *348:s2 *278:12 0.00076441
54 *41:13 *344:s3 0.00176336
55 *41:13 *52:13 0.00793442
56 *41:45 *52:57 0.00679814
57 *41:75 *52:57 4.38511e-05
58 *337:s1 *337:s2 3.52312e-06
59 *337:s1 *41:406 1.8279e-05
60 *30:15 *41:13 0.00439763
61 *30:15 *41:21 0.00182028
62 *30:19 *41:21 0.000226646
63 *30:21 *41:23 0.00598976
64 *30:49 *41:45 0.00113229
65 *30:49 *41:75 0.00037034
66 *30:88 *41:123 0.00601462
67 *30:92 *41:127 0.000521774
68 *30:107 *41:127 0.000273161
69 *30:117 *41:155 0.00122838
70 *30:132 *41:155 0.000286821
71 *30:132 *41:161 0.00627668
72 *30:146 *41:161 0.000668869
73 *30:146 *41:185 0.000420327
74 *30:146 *41:187 0.000118514
75 *30:148 *41:187 0.00561611
76 *30:164 *351:s2 0
77 *30:182 *351:s2 0
78 *30:192 *41:215 0.000217986
79 *30:192 *41:263 0.000864138
80 *30:206 *41:263 0.000151023
81 *30:229 *41:363 0.00605062
82 *30:243 *41:363 0.000944675
83 *30:243 *41:386 0.00601739
84 *30:251 *41:386 0
85 *30:251 *41:406 0
*RES
1 io_in[1] *41:5 152.415 
2 *41:5 *41:7 0.5 
3 *41:7 *41:9 505.515 
4 *41:9 *41:13 27.1659 
5 *41:13 *41:21 4.5736 
6 *41:21 *41:23 70.395 
7 *41:23 *41:27 5.745 
8 *41:27 *343:s2 15.2121 
9 *41:27 *41:45 78.645 
10 *41:45 *342:s2 15.5274 
11 *41:45 *41:75 77.115 
12 *41:75 *41:77 1.14 
13 *41:77 *341:s2 17.286 
14 *41:77 *41:100 82.725 
15 *41:100 *340:s2 18.0358 
16 *41:100 *41:123 70.995 
17 *41:123 *41:127 3.0726 
18 *41:127 *339:s2 1.58225 
19 *41:127 *41:143 1.1498 
20 *41:143 *41:145 55.695 
21 *41:145 *41:155 33.8594 
22 *41:155 *41:159 0.771067 
23 *41:159 *41:161 77.625 
24 *41:161 *352:s2 14.0516 
25 *41:161 *41:185 5.96607 
26 *41:185 *41:187 73.035 
27 *41:187 *351:s2 11.2468 
28 *351:s2 *41:210 0.163333 
29 *41:187 *41:215 74.565 
30 *41:215 *41:225 4.7544 
31 *41:225 *350:s2 1.0725 
32 *41:225 *41:241 5.8075 
33 *41:241 *41:243 59.3325 
34 *41:243 *41:263 29.2596 
35 *41:263 *349:s2 2.60377 
36 *41:263 *41:285 0.691267 
37 *41:285 *41:287 52.86 
38 *41:287 *348:s2 31.345 
39 *348:s2 *41:319 35.2676 
40 *41:319 *347:s2 45.2863 
41 *347:s2 *41:361 14.825 
42 *41:361 *41:363 80.685 
43 *41:363 *346:s2 14.2393 
44 *41:363 *41:386 73.035 
45 *41:386 *345:s2 8.57245 
46 *41:386 *41:406 62.835 
47 *41:406 *337:s2 15.3814 
48 *41:155 *338:s2 12.9096 
49 *41:13 *344:s2 12.475 
*END

*D_NET *52 0.432131
*CONN
*P io_in[2] I
*I *337:s3 I *D sky130_osu_ring_oscillator_mpr2aa_8_b0r1
*I *345:s3 I *D sky130_osu_ring_oscillator_mpr2at_8_b0r1
*I *346:s3 I *D sky130_osu_ring_oscillator_mpr2ca_8_b0r1
*I *347:s3 I *D sky130_osu_ring_oscillator_mpr2ct_8_b0r1
*I *348:s3 I *D sky130_osu_ring_oscillator_mpr2ea_8_b0r1
*I *349:s3 I *D sky130_osu_ring_oscillator_mpr2et_8_b0r1
*I *350:s3 I *D sky130_osu_ring_oscillator_mpr2xa_8_b0r1
*I *351:s3 I *D sky130_osu_ring_oscillator_mpr2ya_8_b0r1
*I *352:s3 I *D sky130_osu_ring_oscillator_mpr2aa_8_b0r2
*I *338:s3 I *D sky130_osu_ring_oscillator_mpr2at_8_b0r2
*I *339:s3 I *D sky130_osu_ring_oscillator_mpr2ca_8_b0r2
*I *340:s3 I *D sky130_osu_ring_oscillator_mpr2ct_8_b0r2
*I *341:s3 I *D sky130_osu_ring_oscillator_mpr2ea_8_b0r2
*I *342:s3 I *D sky130_osu_ring_oscillator_mpr2et_8_b0r2
*I *343:s3 I *D sky130_osu_ring_oscillator_mpr2xa_8_b0r2
*I *344:s3 I *D sky130_osu_ring_oscillator_mpr2ya_8_b0r2
*CAP
1 io_in[2] 0.0535066
2 *337:s3 0.00254575
3 *345:s3 0.00198462
4 *346:s3 0.00268172
5 *347:s3 0.00235608
6 *348:s3 0.00235759
7 *349:s3 0.00207404
8 *350:s3 0.00211837
9 *351:s3 0.00210631
10 *352:s3 0.00229182
11 *338:s3 0.00245497
12 *339:s3 0.00270662
13 *340:s3 0.00207016
14 *341:s3 0.00195425
15 *342:s3 0.00060262
16 *343:s3 0.000477196
17 *344:s3 0.00183025
18 *52:466 0.00451751
19 *52:462 0.00246534
20 *52:432 0.00283306
21 *52:426 0.00212959
22 *52:403 0.00695752
23 *52:397 0.0045121
24 *52:372 0.00838415
25 *52:370 0.00451383
26 *52:340 0.00285438
27 *52:338 0.00287043
28 *52:312 0.00553587
29 *52:304 0.00490995
30 *52:302 0.00514305
31 *52:277 0.00294289
32 *52:275 0.00132004
33 *52:273 0.00198014
34 *52:243 0.00299577
35 *52:237 0.00376156
36 *52:217 0.00609444
37 *52:211 0.00319663
38 *52:209 0.00292622
39 *52:187 0.00298732
40 *52:183 0.00197795
41 *52:181 0.00200044
42 *52:150 0.00472263
43 *52:148 0.00340316
44 *52:137 0
45 *52:118 0.0072057
46 *52:116 0.00332139
47 *52:91 0.0020821
48 *52:89 0.00433879
49 *52:87 0.00585836
50 *52:61 0.00423866
51 *52:57 0.00475955
52 *52:55 0.00463953
53 *52:37 0.00426336
54 *52:31 0.00492408
55 *52:29 0.00313437
56 *52:13 0.0138568
57 *52:9 0.0316513
58 *52:7 0.0196248
59 *52:5 0.0535066
60 *338:s3 *61:211 0
61 *338:s3 *314:15 0
62 *340:s3 *340:s4 0.00150717
63 *340:s3 *61:125 0.000353342
64 *341:s3 *341:s4 0.000572448
65 *341:s3 *341:s5 0.000450945
66 *345:s3 *345:s4 0.000263871
67 *345:s3 *61:441 2.98784e-05
68 *345:s3 *62:361 0.000237998
69 *345:s3 *252:18 9.88803e-05
70 *346:s3 *61:435 0.000290292
71 *347:s3 *61:406 0
72 *349:s3 *61:338 0.000287517
73 *349:s3 *294:14 0
74 *351:s3 *61:263 9.52435e-05
75 *352:s3 *62:219 0
76 *52:31 *62:39 0.00247255
77 *52:31 *62:61 0.000160681
78 *52:31 *62:63 0
79 *52:89 *61:93 0
80 *52:116 *341:s5 0.000279014
81 *52:116 *62:89 0.000105932
82 *52:118 *61:121 0
83 *52:118 *62:114 0.00373103
84 *52:118 *62:140 0
85 *52:148 *62:140 0.00324223
86 *52:150 *62:140 0.000972397
87 *52:150 *62:144 0.000284705
88 *52:150 *62:164 0.00081159
89 *52:183 *62:166 0.00530629
90 *52:183 *328:10 0.00369806
91 *52:211 *61:213 0.00619993
92 *52:211 *62:219 0
93 *52:237 *61:263 0.0019886
94 *52:237 *62:219 0
95 *52:243 *61:263 0.000117645
96 *52:273 *61:263 2.67006e-05
97 *52:273 *61:265 0.00130056
98 *52:273 *295:14 0.000852183
99 *52:275 *61:265 0.00185754
100 *52:275 *295:14 0.00268869
101 *52:275 *311:6 0
102 *52:304 *62:257 0
103 *52:304 *62:275 0.000857121
104 *52:304 *256:18 0
105 *52:312 *61:338 6.32125e-05
106 *52:312 *61:340 0.000143371
107 *52:338 *61:340 0.00583038
108 *52:338 *62:297 0
109 *52:370 *62:295 0.000342812
110 *52:370 *62:297 0
111 *52:370 *291:18 0
112 *52:372 *62:297 0
113 *52:372 *62:315 0
114 *52:372 *291:18 0
115 *52:397 *62:315 0
116 *52:397 *291:18 0
117 *52:403 *61:437 9.72113e-05
118 *52:403 *62:315 0
119 *52:403 *62:331 0
120 *52:403 *291:18 0.000570535
121 *52:426 *61:437 0.00639922
122 *52:426 *291:18 0.0028991
123 *52:432 *61:441 0
124 *52:462 *61:460 0.000769112
125 *52:462 *62:361 4.38511e-05
126 *52:462 *252:18 0.000796625
127 *52:466 *337:s4 2.93107e-05
128 *52:466 *61:460 0.00188535
129 *52:466 *252:18 0
130 *342:s2 *52:61 0.00253951
131 *343:s2 *52:55 0.000579817
132 *41:13 *344:s3 0.00176336
133 *41:13 *52:13 0.00793442
134 *41:45 *52:57 0.00679814
135 *41:75 *52:57 4.38511e-05
*RES
1 io_in[2] *52:5 134.061 
2 *52:5 *52:7 0.5 
3 *52:7 *52:9 357.105 
4 *52:9 *52:13 39.1105 
5 *52:13 *344:s3 18.0195 
6 *52:13 *52:29 0.5 
7 *52:29 *52:31 75.585 
8 *52:31 *52:37 5.69933 
9 *52:37 *343:s3 10.4788 
10 *52:37 *52:55 9.22833 
11 *52:55 *52:57 76.605 
12 *52:57 *52:61 7.41347 
13 *52:61 *342:s3 10.3383 
14 *52:61 *52:87 4.5584 
15 *52:87 *52:89 78.135 
16 *52:89 *52:91 0.5 
17 *52:91 *341:s3 15.6821 
18 *52:91 *52:116 1.0624 
19 *52:116 *52:118 81.195 
20 *52:118 *340:s3 18.6744 
21 *340:s3 *52:137 0.163333 
22 *52:118 *52:148 48.93 
23 *52:148 *52:150 36.795 
24 *52:150 *339:s3 20.4174 
25 *52:150 *52:181 6.49047 
26 *52:181 *52:183 71.505 
27 *52:183 *52:187 1.70333 
28 *52:187 *338:s3 16.2503 
29 *52:187 *52:209 0.5 
30 *52:209 *52:211 78.645 
31 *52:211 *52:217 1.62067 
32 *52:217 *352:s3 19.2127 
33 *52:217 *52:237 69.465 
34 *52:237 *52:243 4.92 
35 *52:243 *351:s3 12.19 
36 *52:243 *52:273 26.205 
37 *52:273 *52:275 54.015 
38 *52:275 *52:277 0.5 
39 *52:277 *350:s3 14.1458 
40 *52:277 *52:302 2.69387 
41 *52:302 *52:304 81.705 
42 *52:304 *52:312 4.12967 
43 *52:312 *349:s3 16.2023 
44 *52:312 *52:338 76.095 
45 *52:338 *52:340 0.5 
46 *52:340 *348:s3 13.8927 
47 *52:340 *52:370 6.4572 
48 *52:370 *52:372 72.795 
49 *52:372 *347:s3 12.3488 
50 *52:372 *52:397 36.54 
51 *52:397 *52:403 49.185 
52 *52:403 *346:s3 17.3289 
53 *52:403 *52:426 77.115 
54 *52:426 *52:432 1.97027 
55 *52:432 *345:s3 14.608 
56 *52:432 *52:462 21.3 
57 *52:462 *52:466 48.2 
58 *52:466 *337:s3 13.7348 
*END

*D_NET *61 0.347112
*CONN
*P io_in[3] I
*I *339:s4 I *D sky130_osu_ring_oscillator_mpr2ca_8_b0r2
*I *337:s4 I *D sky130_osu_ring_oscillator_mpr2aa_8_b0r1
*I *345:s4 I *D sky130_osu_ring_oscillator_mpr2at_8_b0r1
*I *346:s4 I *D sky130_osu_ring_oscillator_mpr2ca_8_b0r1
*I *347:s4 I *D sky130_osu_ring_oscillator_mpr2ct_8_b0r1
*I *348:s4 I *D sky130_osu_ring_oscillator_mpr2ea_8_b0r1
*I *349:s4 I *D sky130_osu_ring_oscillator_mpr2et_8_b0r1
*I *350:s4 I *D sky130_osu_ring_oscillator_mpr2xa_8_b0r1
*I *351:s4 I *D sky130_osu_ring_oscillator_mpr2ya_8_b0r1
*I *352:s4 I *D sky130_osu_ring_oscillator_mpr2aa_8_b0r2
*I *338:s4 I *D sky130_osu_ring_oscillator_mpr2at_8_b0r2
*I *340:s4 I *D sky130_osu_ring_oscillator_mpr2ct_8_b0r2
*I *341:s4 I *D sky130_osu_ring_oscillator_mpr2ea_8_b0r2
*I *342:s4 I *D sky130_osu_ring_oscillator_mpr2et_8_b0r2
*I *343:s4 I *D sky130_osu_ring_oscillator_mpr2xa_8_b0r2
*I *344:s4 I *D sky130_osu_ring_oscillator_mpr2ya_8_b0r2
*CAP
1 io_in[3] 0.000793773
2 *339:s4 0
3 *337:s4 0.00108142
4 *345:s4 0.000982261
5 *346:s4 0.00142062
6 *347:s4 0.000115609
7 *348:s4 0.000265899
8 *349:s4 0.00204907
9 *350:s4 6.24322e-05
10 *351:s4 0.00123117
11 *352:s4 0.000260086
12 *338:s4 0.00220887
13 *340:s4 0.0012229
14 *341:s4 0.0012679
15 *342:s4 0.0011064
16 *343:s4 0.000157999
17 *344:s4 0.000431264
18 *61:460 0.0034429
19 *61:458 0.00236148
20 *61:441 0.00136684
21 *61:437 0.00230096
22 *61:435 0.00236333
23 *61:408 0.00590647
24 *61:406 0.00586669
25 *61:374 0.00585
26 *61:372 0.00438182
27 *61:346 0.00135603
28 *61:340 0.00296803
29 *61:338 0.00345846
30 *61:297 0.00468977
31 *61:295 0.00386254
32 *61:279 0.0012627
33 *61:265 0.00390862
34 *61:263 0.00462022
35 *61:237 0.00302652
36 *61:235 0.00307385
37 *61:233 0.00307385
38 *61:217 0.00137865
39 *61:213 0.00404507
40 *61:211 0.00381399
41 *61:171 0.00483965
42 *61:169 0.003643
43 *61:161 0.00135718
44 *61:149 0.00398035
45 *61:147 0.00274789
46 *61:125 0.00144572
47 *61:121 0.00483319
48 *61:119 0.00476818
49 *61:93 0.00571393
50 *61:91 0.00535044
51 *61:73 0.00562133
52 *61:67 0.00608364
53 *61:63 0.00314704
54 *61:39 0.00455734
55 *61:37 0.00388322
56 *61:32 9.1741e-06
57 *61:13 0.0648827
58 *61:11 0.0644607
59 *61:9 0.0101306
60 *61:7 0.0109244
61 *337:s4 *316:9 0
62 *338:s4 *315:13 0
63 *341:s4 *341:s5 0.000369038
64 *342:s4 *342:s5 0
65 *342:s4 *320:8 4.01317e-05
66 *342:s4 *320:10 0
67 *348:s4 *310:12 9.91634e-05
68 *349:s4 *311:6 0
69 *351:s4 *313:16 0
70 *61:9 *62:11 0.00385151
71 *61:39 *305:12 0.000259458
72 *61:73 *62:71 0
73 *61:73 *256:18 0
74 *61:91 *62:85 0
75 *61:91 *256:18 0
76 *61:121 *328:10 0
77 *61:121 *329:10 0
78 *61:121 *330:14 0
79 *61:149 *62:140 0.0025159
80 *61:149 *62:164 0
81 *61:211 *62:203 0.00030661
82 *61:217 *313:22 0.000266547
83 *61:263 *62:219 0
84 *61:263 *295:14 0.0011861
85 *61:297 *295:12 0.000207562
86 *61:338 *310:14 0
87 *61:346 *348:s5 0.000263522
88 *61:372 *310:12 1.64067e-05
89 *61:374 *309:16 0.000390497
90 *61:408 *62:315 0
91 *61:408 *62:331 0
92 *61:435 *62:331 0
93 *61:437 *345:s5 0.00148441
94 *61:437 *62:331 0
95 *61:441 *62:361 4.06479e-05
96 *61:460 *62:361 0.000290705
97 *338:s3 *61:211 0
98 *340:s3 *340:s4 0.00150717
99 *340:s3 *61:125 0.000353342
100 *341:s3 *341:s4 0.000572448
101 *345:s3 *345:s4 0.000263871
102 *345:s3 *61:441 2.98784e-05
103 *346:s3 *61:435 0.000290292
104 *347:s3 *61:406 0
105 *349:s3 *61:338 0.000287517
106 *351:s3 *61:263 9.52435e-05
107 *52:89 *61:93 0
108 *52:118 *61:121 0
109 *52:211 *61:213 0.00619993
110 *52:237 *61:263 0.0019886
111 *52:243 *61:263 0.000117645
112 *52:273 *61:263 2.67006e-05
113 *52:273 *61:265 0.00130056
114 *52:275 *61:265 0.00185754
115 *52:312 *61:338 6.32125e-05
116 *52:312 *61:340 0.000143371
117 *52:338 *61:340 0.00583038
118 *52:403 *61:437 9.72113e-05
119 *52:426 *61:437 0.00639922
120 *52:432 *61:441 0
121 *52:462 *61:460 0.000769112
122 *52:466 *337:s4 2.93107e-05
123 *52:466 *61:460 0.00188535
*RES
1 io_in[3] *61:7 2.58747 
2 *61:7 *61:9 200.535 
3 *61:9 *61:11 0.5 
4 *61:11 *61:13 172.682 
5 *61:13 *344:s4 9.28087 
6 *344:s4 *61:32 0.16875 
7 *61:13 *61:37 0.5 
8 *61:37 *61:39 71.1225 
9 *61:39 *343:s4 4.8275 
10 *61:39 *61:63 6.26163 
11 *61:63 *61:67 48.035 
12 *61:67 *61:73 32.1266 
13 *61:73 *342:s4 21.6425 
14 *61:73 *61:91 12.5556 
15 *61:91 *61:93 77.625 
16 *61:93 *341:s4 15.2508 
17 *61:93 *61:119 2.865 
18 *61:119 *61:121 83.235 
19 *61:121 *61:125 1.29547 
20 *61:125 *340:s4 16.6734 
21 *61:125 *61:147 0.5 
22 *61:147 *61:149 68.955 
23 *61:149 *61:161 3.47477 
24 *61:161 *61:169 0.909767 
25 *61:169 *61:171 63.855 
26 *61:171 *338:s4 23.3074 
27 *338:s4 *61:211 4.28917 
28 *61:211 *61:213 78.645 
29 *61:213 *61:217 3.27653 
30 *61:217 *352:s4 2.54357 
31 *61:217 *61:233 0.5 
32 *61:233 *61:235 55.695 
33 *61:235 *61:237 0.5 
34 *61:237 *351:s4 19.6549 
35 *61:237 *61:263 31.0999 
36 *61:263 *61:265 73.545 
37 *61:265 *61:279 3.7512 
38 *61:279 *350:s4 1.0725 
39 *61:279 *61:295 5.8075 
40 *61:295 *61:297 69.3375 
41 *61:297 *349:s4 8.38447 
42 *349:s4 *61:338 12.755 
43 *61:338 *61:340 67.2975 
44 *61:340 *61:346 14.0225 
45 *61:346 *348:s4 5.11875 
46 *61:346 *61:372 7.9568 
47 *61:372 *61:374 73.6725 
48 *61:374 *347:s4 4.08125 
49 *61:374 *61:406 17.9974 
50 *61:406 *61:408 73.035 
51 *61:408 *346:s4 8.82267 
52 *61:408 *61:435 6.4322 
53 *61:435 *61:437 73.035 
54 *61:437 *61:441 1.5868 
55 *61:441 *345:s4 6.36218 
56 *61:441 *61:458 0.5 
57 *61:458 *61:460 62.175 
58 *61:460 *337:s4 20.8213 
59 *61:161 *339:s4 0.5 
*END

*D_NET *62 0.329694
*CONN
*P io_in[4] I
*I *337:s5 I *D sky130_osu_ring_oscillator_mpr2aa_8_b0r1
*I *345:s5 I *D sky130_osu_ring_oscillator_mpr2at_8_b0r1
*I *346:s5 I *D sky130_osu_ring_oscillator_mpr2ca_8_b0r1
*I *347:s5 I *D sky130_osu_ring_oscillator_mpr2ct_8_b0r1
*I *348:s5 I *D sky130_osu_ring_oscillator_mpr2ea_8_b0r1
*I *349:s5 I *D sky130_osu_ring_oscillator_mpr2et_8_b0r1
*I *350:s5 I *D sky130_osu_ring_oscillator_mpr2xa_8_b0r1
*I *351:s5 I *D sky130_osu_ring_oscillator_mpr2ya_8_b0r1