*SPEF "ieee 1481-1999"
*DESIGN "user_project_wrapper"
*DATE "11:11:11 Fri 11 11, 1111"
*VENDOR "OpenRCX"
*PROGRAM "Parallel Extraction"
*VERSION "1.0"
*DESIGN_FLOW "NAME_SCOPE LOCAL" "PIN_CAP NONE"
*DIVIDER /
*DELIMITER :
*BUS_DELIMITER []
*T_UNIT 1 NS
*C_UNIT 1 PF
*R_UNIT 1 OHM
*L_UNIT 1 HENRY

*NAME_MAP
*1 analog_io[0]
*2 analog_io[10]
*3 analog_io[11]
*4 analog_io[12]
*5 analog_io[13]
*6 analog_io[14]
*7 analog_io[15]
*8 analog_io[16]
*9 analog_io[17]
*10 analog_io[18]
*11 analog_io[19]
*12 analog_io[1]
*13 analog_io[20]
*14 analog_io[21]
*15 analog_io[22]
*16 analog_io[23]
*17 analog_io[24]
*18 analog_io[25]
*19 analog_io[26]
*20 analog_io[27]
*21 analog_io[28]
*22 analog_io[2]
*23 analog_io[3]
*24 analog_io[4]
*25 analog_io[5]
*26 analog_io[6]
*27 analog_io[7]
*28 analog_io[8]
*29 analog_io[9]
*30 io_in[0]
*31 io_in[10]
*32 io_in[11]
*33 io_in[12]
*34 io_in[13]
*35 io_in[14]
*36 io_in[15]
*37 io_in[16]
*38 io_in[17]
*39 io_in[18]
*40 io_in[19]
*41 io_in[1]
*42 io_in[20]
*43 io_in[21]
*44 io_in[22]
*45 io_in[23]
*46 io_in[24]
*47 io_in[25]
*48 io_in[26]
*49 io_in[27]
*50 io_in[28]
*51 io_in[29]
*52 io_in[2]
*53 io_in[30]
*54 io_in[31]
*55 io_in[32]
*56 io_in[33]
*57 io_in[34]
*58 io_in[35]
*59 io_in[36]
*60 io_in[37]
*61 io_in[3]
*62 io_in[4]
*63 io_in[5]
*64 io_in[6]
*65 io_in[7]
*66 io_in[8]
*67 io_in[9]
*68 io_oeb[0]
*69 io_oeb[10]
*70 io_oeb[11]
*71 io_oeb[12]
*72 io_oeb[13]
*73 io_oeb[14]
*74 io_oeb[15]
*75 io_oeb[16]
*76 io_oeb[17]
*77 io_oeb[18]
*78 io_oeb[19]
*79 io_oeb[1]
*80 io_oeb[20]
*81 io_oeb[21]
*82 io_oeb[22]
*83 io_oeb[23]
*84 io_oeb[24]
*85 io_oeb[25]
*86 io_oeb[26]
*87 io_oeb[27]
*88 io_oeb[28]
*89 io_oeb[29]
*90 io_oeb[2]
*91 io_oeb[30]
*92 io_oeb[31]
*93 io_oeb[32]
*94 io_oeb[33]
*95 io_oeb[34]
*96 io_oeb[35]
*97 io_oeb[36]
*98 io_oeb[37]
*99 io_oeb[3]
*100 io_oeb[4]
*101 io_oeb[5]
*102 io_oeb[6]
*103 io_oeb[7]
*104 io_oeb[8]
*105 io_oeb[9]
*106 io_out[0]
*107 io_out[10]
*108 io_out[11]
*109 io_out[12]
*110 io_out[13]
*111 io_out[14]
*112 io_out[15]
*113 io_out[16]
*114 io_out[17]
*115 io_out[18]
*116 io_out[19]
*117 io_out[1]
*118 io_out[20]
*119 io_out[21]
*120 io_out[22]
*121 io_out[23]
*122 io_out[24]
*123 io_out[25]
*124 io_out[26]
*125 io_out[27]
*126 io_out[28]
*127 io_out[29]
*128 io_out[2]
*129 io_out[30]
*130 io_out[31]
*131 io_out[32]
*132 io_out[33]
*133 io_out[34]
*134 io_out[35]
*135 io_out[36]
*136 io_out[37]
*137 io_out[3]
*138 io_out[4]
*139 io_out[5]
*140 io_out[6]
*141 io_out[7]
*142 io_out[8]
*143 io_out[9]
*146 wb_clk_i
*147 wb_rst_i
*148 wbs_ack_o
*149 wbs_adr_i[0]
*150 wbs_adr_i[10]
*151 wbs_adr_i[11]
*152 wbs_adr_i[12]
*153 wbs_adr_i[13]
*154 wbs_adr_i[14]
*155 wbs_adr_i[15]
*156 wbs_adr_i[16]
*157 wbs_adr_i[17]
*158 wbs_adr_i[18]
*159 wbs_adr_i[19]
*160 wbs_adr_i[1]
*161 wbs_adr_i[20]
*162 wbs_adr_i[21]
*163 wbs_adr_i[22]
*164 wbs_adr_i[23]
*165 wbs_adr_i[24]
*166 wbs_adr_i[25]
*167 wbs_adr_i[26]
*168 wbs_adr_i[27]
*169 wbs_adr_i[28]
*170 wbs_adr_i[29]
*171 wbs_adr_i[2]
*172 wbs_adr_i[30]
*173 wbs_adr_i[31]
*174 wbs_adr_i[3]
*175 wbs_adr_i[4]
*176 wbs_adr_i[5]
*177 wbs_adr_i[6]
*178 wbs_adr_i[7]
*179 wbs_adr_i[8]
*180 wbs_adr_i[9]
*181 wbs_cyc_i
*182 wbs_dat_i[0]
*183 wbs_dat_i[10]
*184 wbs_dat_i[11]
*185 wbs_dat_i[12]
*186 wbs_dat_i[13]
*187 wbs_dat_i[14]
*188 wbs_dat_i[15]
*189 wbs_dat_i[16]
*190 wbs_dat_i[17]
*191 wbs_dat_i[18]
*192 wbs_dat_i[19]
*193 wbs_dat_i[1]
*194 wbs_dat_i[20]
*195 wbs_dat_i[21]
*196 wbs_dat_i[22]
*197 wbs_dat_i[23]
*198 wbs_dat_i[24]
*199 wbs_dat_i[25]
*200 wbs_dat_i[26]
*201 wbs_dat_i[27]
*202 wbs_dat_i[28]
*203 wbs_dat_i[29]
*204 wbs_dat_i[2]
*205 wbs_dat_i[30]
*206 wbs_dat_i[31]
*207 wbs_dat_i[3]
*208 wbs_dat_i[4]
*209 wbs_dat_i[5]
*210 wbs_dat_i[6]
*211 wbs_dat_i[7]
*212 wbs_dat_i[8]
*213 wbs_dat_i[9]
*214 wbs_dat_o[0]
*215 wbs_dat_o[10]
*216 wbs_dat_o[11]
*217 wbs_dat_o[12]
*218 wbs_dat_o[13]
*219 wbs_dat_o[14]
*220 wbs_dat_o[15]
*221 wbs_dat_o[16]
*222 wbs_dat_o[17]
*223 wbs_dat_o[18]
*224 wbs_dat_o[19]
*225 wbs_dat_o[1]
*226 wbs_dat_o[20]
*227 wbs_dat_o[21]
*228 wbs_dat_o[22]
*229 wbs_dat_o[23]
*230 wbs_dat_o[24]
*231 wbs_dat_o[25]
*232 wbs_dat_o[26]
*233 wbs_dat_o[27]
*234 wbs_dat_o[28]
*235 wbs_dat_o[29]
*236 wbs_dat_o[2]
*237 wbs_dat_o[30]
*238 wbs_dat_o[31]
*239 wbs_dat_o[3]
*240 wbs_dat_o[4]
*241 wbs_dat_o[5]
*242 wbs_dat_o[6]
*243 wbs_dat_o[7]
*244 wbs_dat_o[8]
*245 wbs_dat_o[9]
*246 wbs_sel_i[0]
*247 wbs_sel_i[1]
*248 wbs_sel_i[2]
*249 wbs_sel_i[3]
*250 wbs_stb_i
*251 wbs_we_i
*252 x1\[0\]
*253 x1\[10\]
*254 x1\[11\]
*255 x1\[12\]
*256 x1\[13\]
*257 x1\[14\]
*258 x1\[15\]
*259 x1\[1\]
*260 x1\[2\]
*261 x1\[3\]
*262 x1\[4\]
*263 x1\[5\]
*264 x1\[6\]
*265 x1\[7\]
*266 x1\[8\]
*267 x1\[9\]
*268 x2\[0\]
*269 x2\[10\]
*270 x2\[11\]
*271 x2\[12\]
*272 x2\[13\]
*273 x2\[14\]
*274 x2\[15\]
*275 x2\[1\]
*276 x2\[2\]
*277 x2\[3\]
*278 x2\[4\]
*279 x2\[5\]
*280 x2\[6\]
*281 x2\[7\]
*282 x2\[8\]
*283 x2\[9\]
*284 x3\[0\]
*285 x3\[10\]
*286 x3\[11\]
*287 x3\[12\]
*288 x3\[13\]
*289 x3\[14\]
*290 x3\[15\]
*291 x3\[1\]
*292 x3\[2\]
*293 x3\[3\]
*294 x3\[4\]
*295 x3\[5\]
*296 x3\[6\]
*297 x3\[7\]
*298 x3\[8\]
*299 x3\[9\]
*300 x4\[0\]
*301 x4\[10\]
*302 x4\[11\]
*303 x4\[12\]
*304 x4\[13\]
*305 x4\[14\]
*306 x4\[15\]
*307 x4\[1\]
*308 x4\[2\]
*309 x4\[3\]
*310 x4\[4\]
*311 x4\[5\]
*312 x4\[6\]
*313 x4\[7\]
*314 x4\[8\]
*315 x4\[9\]
*316 x5\[0\]
*317 x5\[10\]
*318 x5\[11\]
*319 x5\[12\]
*320 x5\[13\]
*321 x5\[14\]
*322 x5\[15\]
*323 x5\[1\]
*324 x5\[2\]
*325 x5\[3\]
*326 x5\[4\]
*327 x5\[5\]
*328 x5\[6\]
*329 x5\[7\]
*330 x5\[8\]
*331 x5\[9\]
*332 mprj1
*333 mprj2
*334 mprj3
*335 mprj4
*336 mprj5
*337 ro1
*338 ro10
*339 ro11
*340 ro12
*341 ro13
*342 ro14
*343 ro15
*344 ro16
*345 ro2
*346 ro3
*347 ro4
*348 ro5
*349 ro6
*350 ro7
*351 ro8
*352 ro9

*PORTS
analog_io[0] I
analog_io[10] I
analog_io[11] I
analog_io[12] I
analog_io[13] I
analog_io[14] I
analog_io[15] I
analog_io[16] I
analog_io[17] I
analog_io[18] I
analog_io[19] I
analog_io[1] I
analog_io[20] I
analog_io[21] I
analog_io[22] I
analog_io[23] I
analog_io[24] I
analog_io[25] I
analog_io[26] I
analog_io[27] I
analog_io[28] I
analog_io[2] I
analog_io[3] I
analog_io[4] I
analog_io[5] I
analog_io[6] I
analog_io[7] I
analog_io[8] I
analog_io[9] I
io_in[0] I
io_in[10] I
io_in[11] I
io_in[12] I
io_in[13] I
io_in[14] I
io_in[15] I
io_in[16] I
io_in[17] I
io_in[18] I
io_in[19] I
io_in[1] I
io_in[20] I
io_in[21] I
io_in[22] I
io_in[23] I
io_in[24] I
io_in[25] I
io_in[26] I
io_in[27] I
io_in[28] I
io_in[29] I
io_in[2] I
io_in[30] I
io_in[31] I
io_in[32] I
io_in[33] I
io_in[34] I
io_in[35] I
io_in[36] I
io_in[37] I
io_in[3] I
io_in[4] I
io_in[5] I
io_in[6] I
io_in[7] I
io_in[8] I
io_in[9] I
io_oeb[0] O
io_oeb[10] O
io_oeb[11] O
io_oeb[12] O
io_oeb[13] O
io_oeb[14] O
io_oeb[15] O
io_oeb[16] O
io_oeb[17] O
io_oeb[18] O
io_oeb[19] O
io_oeb[1] O
io_oeb[20] O
io_oeb[21] O
io_oeb[22] O
io_oeb[23] O
io_oeb[24] O
io_oeb[25] O
io_oeb[26] O
io_oeb[27] O
io_oeb[28] O
io_oeb[29] O
io_oeb[2] O
io_oeb[30] O
io_oeb[31] O
io_oeb[32] O
io_oeb[33] O
io_oeb[34] O
io_oeb[35] O
io_oeb[36] O
io_oeb[37] O
io_oeb[3] O
io_oeb[4] O
io_oeb[5] O
io_oeb[6] O
io_oeb[7] O
io_oeb[8] O
io_oeb[9] O
io_out[0] O
io_out[10] O
io_out[11] O
io_out[12] O
io_out[13] O
io_out[14] O
io_out[15] O
io_out[16] O
io_out[17] O
io_out[18] O
io_out[19] O
io_out[1] O
io_out[20] O
io_out[21] O
io_out[22] O
io_out[23] O
io_out[24] O
io_out[25] O
io_out[26] O
io_out[27] O
io_out[28] O
io_out[29] O
io_out[2] O
io_out[30] O
io_out[31] O
io_out[32] O
io_out[33] O
io_out[34] O
io_out[35] O
io_out[36] O
io_out[37] O
io_out[3] O
io_out[4] O
io_out[5] O
io_out[6] O
io_out[7] O
io_out[8] O
io_out[9] O
wb_clk_i I
wb_rst_i I
wbs_ack_o O
wbs_adr_i[0] I
wbs_adr_i[10] I
wbs_adr_i[11] I
wbs_adr_i[12] I
wbs_adr_i[13] I
wbs_adr_i[14] I
wbs_adr_i[15] I
wbs_adr_i[16] I
wbs_adr_i[17] I
wbs_adr_i[18] I
wbs_adr_i[19] I
wbs_adr_i[1] I
wbs_adr_i[20] I
wbs_adr_i[21] I
wbs_adr_i[22] I
wbs_adr_i[23] I
wbs_adr_i[24] I
wbs_adr_i[25] I
wbs_adr_i[26] I
wbs_adr_i[27] I
wbs_adr_i[28] I
wbs_adr_i[29] I
wbs_adr_i[2] I
wbs_adr_i[30] I
wbs_adr_i[31] I
wbs_adr_i[3] I
wbs_adr_i[4] I
wbs_adr_i[5] I
wbs_adr_i[6] I
wbs_adr_i[7] I
wbs_adr_i[8] I
wbs_adr_i[9] I
wbs_cyc_i I
wbs_dat_i[0] I
wbs_dat_i[10] I
wbs_dat_i[11] I
wbs_dat_i[12] I
wbs_dat_i[13] I
wbs_dat_i[14] I
wbs_dat_i[15] I
wbs_dat_i[16] I
wbs_dat_i[17] I
wbs_dat_i[18] I
wbs_dat_i[19] I
wbs_dat_i[1] I
wbs_dat_i[20] I
wbs_dat_i[21] I
wbs_dat_i[22] I
wbs_dat_i[23] I
wbs_dat_i[24] I
wbs_dat_i[25] I
wbs_dat_i[26] I
wbs_dat_i[27] I
wbs_dat_i[28] I
wbs_dat_i[29] I
wbs_dat_i[2] I
wbs_dat_i[30] I
wbs_dat_i[31] I
wbs_dat_i[3] I
wbs_dat_i[4] I
wbs_dat_i[5] I
wbs_dat_i[6] I
wbs_dat_i[7] I
wbs_dat_i[8] I
wbs_dat_i[9] I
wbs_dat_o[0] O
wbs_dat_o[10] O
wbs_dat_o[11] O
wbs_dat_o[12] O
wbs_dat_o[13] O
wbs_dat_o[14] O
wbs_dat_o[15] O
wbs_dat_o[16] O
wbs_dat_o[17] O
wbs_dat_o[18] O
wbs_dat_o[19] O
wbs_dat_o[1] O
wbs_dat_o[20] O
wbs_dat_o[21] O
wbs_dat_o[22] O
wbs_dat_o[23] O
wbs_dat_o[24] O
wbs_dat_o[25] O
wbs_dat_o[26] O
wbs_dat_o[27] O
wbs_dat_o[28] O
wbs_dat_o[29] O
wbs_dat_o[2] O
wbs_dat_o[30] O
wbs_dat_o[31] O
wbs_dat_o[3] O
wbs_dat_o[4] O
wbs_dat_o[5] O
wbs_dat_o[6] O
wbs_dat_o[7] O
wbs_dat_o[8] O
wbs_dat_o[9] O
wbs_sel_i[0] I
wbs_sel_i[1] I
wbs_sel_i[2] I
wbs_sel_i[3] I
wbs_stb_i I
wbs_we_i I

*D_NET *30 0.450084
*CONN
*P io_in[0] I
*I *347:s1 I *D sky130_osu_ring_oscillator_mpr2ct_8_b0r1
*I *337:s1 I *D sky130_osu_ring_oscillator_mpr2aa_8_b0r1
*I *345:s1 I *D sky130_osu_ring_oscillator_mpr2at_8_b0r1
*I *346:s1 I *D sky130_osu_ring_oscillator_mpr2ca_8_b0r1
*I *348:s1 I *D sky130_osu_ring_oscillator_mpr2ea_8_b0r1
*I *349:s1 I *D sky130_osu_ring_oscillator_mpr2et_8_b0r1
*I *350:s1 I *D sky130_osu_ring_oscillator_mpr2xa_8_b0r1
*I *351:s1 I *D sky130_osu_ring_oscillator_mpr2ya_8_b0r1
*I *352:s1 I *D sky130_osu_ring_oscillator_mpr2aa_8_b0r2
*I *338:s1 I *D sky130_osu_ring_oscillator_mpr2at_8_b0r2
*I *339:s1 I *D sky130_osu_ring_oscillator_mpr2ca_8_b0r2
*I *340:s1 I *D sky130_osu_ring_oscillator_mpr2ct_8_b0r2
*I *341:s1 I *D sky130_osu_ring_oscillator_mpr2ea_8_b0r2
*I *342:s1 I *D sky130_osu_ring_oscillator_mpr2et_8_b0r2
*I *343:s1 I *D sky130_osu_ring_oscillator_mpr2xa_8_b0r2
*I *344:s1 I *D sky130_osu_ring_oscillator_mpr2ya_8_b0r2
*CAP
1 io_in[0] 0.0521941
2 *347:s1 0.000158254
3 *337:s1 0
4 *345:s1 0.00192976
5 *346:s1 0.00491364
6 *348:s1 0.000476891
7 *349:s1 0
8 *350:s1 0
9 *351:s1 0.000379593
10 *352:s1 0.000521985
11 *338:s1 0.00197955
12 *339:s1 0.000250207
13 *340:s1 0.000190686
14 *341:s1 0.000460825
15 *342:s1 0
16 *343:s1 0.000313461
17 *344:s1 0.00132773
18 *30:381 0.000570933
19 *30:369 0.00287837
20 *30:367 0.00402034
21 *30:339 0.00460368
22 *30:337 0.00482721
23 *30:310 0.00547136
24 *30:302 0.00393039
25 *30:300 0.00471682
26 *30:283 0.00350558
27 *30:279 0.0039127
28 *30:272 0.000619635
29 *30:264 0.00612607
30 *30:262 0.00351075
31 *30:249 0.00113127
32 *30:233 0.00632139
33 *30:231 0.0052084
34 *30:212 0.00444761
35 *30:197 0.00698465
36 *30:195 0.00381236
37 *30:191 0.000876378
38 *30:173 0.00447894
39 *30:171 0.00280746
40 *30:158 0.00189018
41 *30:152 0.00254972
42 *30:146 0.0042267
43 *30:144 0.00437944
44 *30:124 0.00265307
45 *30:120 0.00290086
46 *30:118 0.00201664
47 *30:97 0.00109395
48 *30:93 0.00307857
49 *30:86 0.000595011
50 *30:74 0.00614046
51 *30:72 0.00403326
52 *30:55 0.00250195
53 *30:49 0.000825952
54 *30:43 0.00128829
55 *30:41 0.00156647
56 *30:13 0.0255026
57 *30:11 0.0238103
58 *30:9 0.0390974
59 *30:7 0.0390974
60 *30:5 0.0521941
61 *338:s1 *267:11 0
62 *341:s1 *341:start 9.47089e-06
63 *343:s1 *52:47 7.19094e-05
64 *346:s1 *260:7 0
65 *348:s1 *348:start 8.91468e-07
66 *351:s1 *351:start 1.20032e-05
67 *352:s1 *352:start 5.5792e-05
68 *30:13 *344:s4 0.000377753
69 *30:13 *41:17 0.00280435
70 *30:13 *61:35 0.000551654
71 *30:41 *41:23 0.00090154
72 *30:43 *41:23 0.000680238
73 *30:43 *41:25 0.00116225
74 *30:55 *343:start 9.79596e-05
75 *30:55 *41:25 0.00249798
76 *30:55 *52:43 0.0018766
77 *30:72 *343:s2 0
78 *30:72 *343:start 0.00107645
79 *30:72 *41:59 0.00253843
80 *30:72 *63:17 7.60729e-05
81 *30:74 *41:61 0.00740297
82 *30:86 *342:start 6.67393e-05
83 *30:93 *41:61 0.00081604
84 *30:93 *41:88 0.00772138
85 *30:97 *41:88 1.05324e-05
86 *30:118 *41:88 0.000210139
87 *30:118 *41:116 0.000190876
88 *30:120 *41:116 0.00207578
89 *30:124 *41:116 0.00117172
90 *30:144 *41:116 7.80961e-05
91 *30:158 *41:158 0.00422817
92 *30:195 *338:start 3.59051e-05
93 *30:197 *41:188 0.00092104
94 *30:197 *41:215 0.00761352
95 *30:212 *41:215 0.000723226
96 *30:212 *41:243 0.00778941
97 *30:231 *41:243 0.000762789
98 *30:231 *41:247 0.00013971
99 *30:249 *350:s2 0.000220322
100 *30:249 *41:251 7.57482e-05
101 *30:249 *41:257 0
102 *30:249 *52:317 7.46951e-05
103 *30:249 *52:338 0.00206049
104 *30:249 *63:149 5.52048e-05
105 *30:262 *52:338 0.000149416
106 *30:264 *41:259 0.00767424
107 *30:272 *349:start 0.000137368
108 *30:279 *41:259 0.000939271
109 *30:279 *41:288 0.00102353
110 *30:279 *41:290 0
111 *30:283 *41:290 0.00268142
112 *30:300 *41:290 0.000269416
113 *30:339 *259:12 0
114 *30:367 *345:s2 1.51945e-05
115 *30:369 *41:396 0.00662334
116 *30:381 *337:start 3.36973e-05
*RES
1 io_in[0] *30:5 179.532 
2 *30:5 *30:7 8 
3 *30:7 *30:9 905.152 
4 *30:9 *30:11 8 
5 *30:11 *30:13 85.064 
6 *30:13 *344:s1 40.2935 
7 *30:13 *30:41 20.5529 
8 *30:41 *30:43 40.0718 
9 *30:43 *30:49 31.0979 
10 *30:49 *30:55 43.9971 
11 *30:55 *343:s1 45.2655 
12 *30:55 *30:72 35.7093 
13 *30:72 *30:74 93.9911 
14 *30:74 *30:86 28.5834 
15 *30:86 *342:s1 23 
16 *30:74 *30:93 108.429 
17 *30:93 *30:97 1.77107 
18 *30:97 *341:s1 48.3157 
19 *30:97 *30:118 15.4011 
20 *30:118 *30:120 50.17 
21 *30:120 *30:124 43.5104 
22 *30:124 *340:s1 19.1584 
23 *30:124 *30:144 22.2941 
24 *30:144 *30:146 76.2079 
25 *30:146 *30:152 18.8037 
26 *30:152 *30:158 46.1201 
27 *30:158 *339:s1 9.0024 
28 *30:158 *30:171 8 
29 *30:171 *30:173 64.3179 
30 *30:173 *338:s1 39.1966 
31 *338:s1 *30:191 21.6959 
32 *30:191 *30:195 27.0557 
33 *30:195 *30:197 109.838 
34 *30:197 *352:s1 48.9475 
35 *30:197 *30:212 109.485 
36 *30:212 *351:s1 46.063 
37 *30:212 *30:231 31.4017 
38 *30:231 *30:233 100.858 
39 *30:233 *30:249 48.8388 
40 *30:249 *350:s1 23 
41 *30:233 *30:262 24.2569 
42 *30:262 *30:264 97.5125 
43 *30:264 *30:272 28.7543 
44 *30:272 *349:s1 23 
45 *30:264 *30:279 74.9339 
46 *30:279 *30:283 36.0946 
47 *30:283 *348:s1 48.2277 
48 *30:283 *30:300 45.0018 
49 *30:300 *30:302 62.785 
50 *30:302 *30:310 21.68 
51 *30:310 *346:s1 102.898 
52 *346:s1 *30:337 18.7233 
53 *30:337 *30:339 101.562 
54 *30:339 *345:s1 5.33393 
55 *345:s1 *30:367 48.443 
56 *30:367 *30:369 84.1311 
57 *30:369 *30:381 27.1904 
58 *30:381 *337:s1 23 
59 *30:302 *347:s1 18.7648 
*END

*D_NET *41 0.504604
*CONN
*P io_in[1] I
*I *344:s2 I *D sky130_osu_ring_oscillator_mpr2ya_8_b0r2
*I *351:s2 I *D sky130_osu_ring_oscillator_mpr2ya_8_b0r1
*I *350:s2 I *D sky130_osu_ring_oscillator_mpr2xa_8_b0r1
*I *346:s2 I *D sky130_osu_ring_oscillator_mpr2ca_8_b0r1
*I *337:s2 I *D sky130_osu_ring_oscillator_mpr2aa_8_b0r1
*I *345:s2 I *D sky130_osu_ring_oscillator_mpr2at_8_b0r1
*I *347:s2 I *D sky130_osu_ring_oscillator_mpr2ct_8_b0r1
*I *348:s2 I *D sky130_osu_ring_oscillator_mpr2ea_8_b0r1
*I *349:s2 I *D sky130_osu_ring_oscillator_mpr2et_8_b0r1
*I *352:s2 I *D sky130_osu_ring_oscillator_mpr2aa_8_b0r2
*I *338:s2 I *D sky130_osu_ring_oscillator_mpr2at_8_b0r2
*I *339:s2 I *D sky130_osu_ring_oscillator_mpr2ca_8_b0r2
*I *340:s2 I *D sky130_osu_ring_oscillator_mpr2ct_8_b0r2
*I *341:s2 I *D sky130_osu_ring_oscillator_mpr2ea_8_b0r2
*I *342:s2 I *D sky130_osu_ring_oscillator_mpr2et_8_b0r2
*I *343:s2 I *D sky130_osu_ring_oscillator_mpr2xa_8_b0r2
*CAP
1 io_in[1] 0.0740108
2 *344:s2 0.000581777
3 *351:s2 0.000757387
4 *350:s2 0.00175492
5 *346:s2 0.00108616
6 *337:s2 0.00197867
7 *345:s2 0.00220765
8 *347:s2 0.00277227
9 *348:s2 0.000300295
10 *349:s2 9.05305e-05
11 *352:s2 0.00212558
12 *338:s2 0
13 *339:s2 0.000457531
14 *340:s2 7.80219e-05
15 *341:s2 0.00226814
16 *342:s2 0
17 *343:s2 0.00230803
18 *41:477 0
19 *41:396 0.00482228
20 *41:376 0.00573369
21 *41:372 0.00515729
22 *41:370 0.0098099
23 *41:368 0.00424888
24 *41:366 0.00240049
25 *41:328 0.00187112
26 *41:320 0.00245715
27 *41:316 0.00279267
28 *41:296 0.00378909
29 *41:290 0.00495312
30 *41:288 0.00372751
31 *41:277 0.0018752
32 *41:259 0.00389423
33 *41:257 0.00321013
34 *41:251 0.00629699
35 *41:249 0.00301317
36 *41:247 0.00205122
37 *41:243 0.0045366
38 *41:215 0.00851316
39 *41:208 0.000659007
40 *41:204 0.00209312
41 *41:188 0.00718688
42 *41:186 0.00384933
43 *41:180 0.00351863
44 *41:160 0.00273479
45 *41:158 0.00207451
46 *41:148 0.00492278
47 *41:136 0.00196493
48 *41:120 0.00513884
49 *41:116 0.00372311
50 *41:88 0.00853567
51 *41:81 0.00242378
52 *41:61 0.00825787
53 *41:59 0.00397446
54 *41:25 0.00533892
55 *41:23 0.00338907
56 *41:17 0.00374799
57 *41:9 0.0254299
58 *41:7 0.0237103
59 *41:5 0.0740108
60 *347:s2 *277:10 0
61 *350:s2 *63:149 0.000228227
62 *351:s2 *52:311 7.6648e-05
63 *41:9 *52:9 0.0375971
64 *41:17 *344:s4 0.00211462
65 *41:25 *343:start 0.000476179
66 *41:25 *52:43 0
67 *41:59 *343:start 0.000137896
68 *41:59 *63:17 4.80423e-06
69 *41:59 *63:28 0.00109824
70 *41:247 *52:311 2.42241e-05
71 *41:251 *52:313 0.00386308
72 *41:251 *52:338 6.75856e-05
73 *41:251 *63:149 0.000172706
74 *41:257 *52:338 0
75 *41:259 *52:340 0.00882405
76 *41:277 *52:344 0.00333954
77 *30:13 *41:17 0.00280435
78 *30:41 *41:23 0.00090154
79 *30:43 *41:23 0.000680238
80 *30:43 *41:25 0.00116225
81 *30:55 *41:25 0.00249798
82 *30:72 *343:s2 0
83 *30:72 *41:59 0.00253843
84 *30:74 *41:61 0.00740297
85 *30:93 *41:61 0.00081604
86 *30:93 *41:88 0.00772138
87 *30:97 *41:88 1.05324e-05
88 *30:118 *41:88 0.000210139
89 *30:118 *41:116 0.000190876
90 *30:120 *41:116 0.00207578
91 *30:124 *41:116 0.00117172
92 *30:144 *41:116 7.80961e-05
93 *30:158 *41:158 0.00422817
94 *30:197 *41:188 0.00092104
95 *30:197 *41:215 0.00761352
96 *30:212 *41:215 0.000723226
97 *30:212 *41:243 0.00778941
98 *30:231 *41:243 0.000762789
99 *30:231 *41:247 0.00013971
100 *30:249 *350:s2 0.000220322
101 *30:249 *41:251 7.57482e-05
102 *30:249 *41:257 0
103 *30:264 *41:259 0.00767424
104 *30:279 *41:259 0.000939271
105 *30:279 *41:288 0.00102353
106 *30:279 *41:290 0
107 *30:283 *41:290 0.00268142
108 *30:300 *41:290 0.000269416
109 *30:367 *345:s2 1.51945e-05
110 *30:369 *41:396 0.00662334
*RES
1 io_in[1] *41:5 254.236 
2 *41:5 *41:7 8 
3 *41:7 *41:9 698.092 
4 *41:9 *41:17 27.3924 
5 *41:17 *41:23 44.3286 
6 *41:23 *41:25 67.7564 
7 *41:25 *343:s2 49.3653 
8 *41:25 *41:59 24.4451 
9 *41:59 *41:61 105.084 
10 *41:61 *41:81 48.7481 
11 *41:81 *342:s2 15 
12 *41:61 *41:88 106.492 
13 *41:88 *341:s2 48.207 
14 *41:88 *41:116 106.906 
15 *41:116 *41:120 9.05214 
16 *41:120 *41:136 49.7441 
17 *41:136 *340:s2 2.25786 
18 *41:120 *41:148 64.2764 
19 *41:148 *41:158 49.9752 
20 *41:158 *41:160 8 
21 *41:160 *339:s2 21.3734 
22 *41:160 *41:180 52.2621 
23 *41:180 *41:186 20.0059 
24 *41:186 *41:188 62.1221 
25 *41:188 *41:204 43.8059 
26 *41:204 *41:208 29.7279 
27 *41:208 *338:s2 23 
28 *41:188 *41:215 107.196 
29 *41:215 *352:s2 47.268 
30 *41:215 *41:243 110.014 
31 *41:243 *41:247 12.6069 
32 *41:247 *41:249 8 
33 *41:249 *41:251 100.154 
34 *41:251 *41:257 20.8645 
35 *41:257 *41:259 119.874 
36 *41:259 *41:277 48.7511 
37 *41:277 *349:s2 16.9886 
38 *41:259 *41:288 14.6864 
39 *41:288 *41:290 87.8907 
40 *41:290 *41:296 21.5515 
41 *41:296 *348:s2 20.9706 
42 *41:296 *41:316 42.1329 
43 *41:316 *41:320 22.2057 
44 *41:320 *41:328 46.2017 
45 *41:328 *347:s2 23.0061 
46 *347:s2 *41:366 42.1162 
47 *41:366 *41:368 8 
48 *41:368 *41:370 95.9279 
49 *41:370 *41:372 101.314 
50 *41:372 *41:376 16.0536 
51 *41:376 *345:s2 27.0192 
52 *41:376 *41:396 95.9279 
53 *41:396 *337:s2 25.7056 
54 *41:370 *346:s2 39.2616 
55 *41:251 *350:s2 26.5696 
56 *41:247 *351:s2 35.4007 
57 *351:s2 *41:477 0.225556 
58 *41:17 *344:s2 26.9829 
*END

*D_NET *52 0.497583
*CONN
*P io_in[2] I
*I *337:s3 I *D sky130_osu_ring_oscillator_mpr2aa_8_b0r1
*I *345:s3 I *D sky130_osu_ring_oscillator_mpr2at_8_b0r1
*I *346:s3 I *D sky130_osu_ring_oscillator_mpr2ca_8_b0r1
*I *347:s3 I *D sky130_osu_ring_oscillator_mpr2ct_8_b0r1
*I *348:s3 I *D sky130_osu_ring_oscillator_mpr2ea_8_b0r1
*I *349:s3 I *D sky130_osu_ring_oscillator_mpr2et_8_b0r1
*I *350:s3 I *D sky130_osu_ring_oscillator_mpr2xa_8_b0r1
*I *351:s3 I *D sky130_osu_ring_oscillator_mpr2ya_8_b0r1
*I *352:s3 I *D sky130_osu_ring_oscillator_mpr2aa_8_b0r2
*I *338:s3 I *D sky130_osu_ring_oscillator_mpr2at_8_b0r2
*I *339:s3 I *D sky130_osu_ring_oscillator_mpr2ca_8_b0r2
*I *340:s3 I *D sky130_osu_ring_oscillator_mpr2ct_8_b0r2
*I *341:s3 I *D sky130_osu_ring_oscillator_mpr2ea_8_b0r2
*I *342:s3 I *D sky130_osu_ring_oscillator_mpr2et_8_b0r2
*I *343:s3 I *D sky130_osu_ring_oscillator_mpr2xa_8_b0r2
*I *344:s3 I *D sky130_osu_ring_oscillator_mpr2ya_8_b0r2
*CAP
1 io_in[2] 0.0722209
2 *337:s3 0.00261908
3 *345:s3 0.00210561
4 *346:s3 0
5 *347:s3 0.00215884
6 *348:s3 6.91572e-05
7 *349:s3 0.000745028
8 *350:s3 3.43132e-05
9 *351:s3 0.000533823
10 *352:s3 0.000103364
11 *338:s3 0.00232842
12 *339:s3 0
13 *340:s3 0.000116934
14 *341:s3 0.00269195
15 *342:s3 9.82934e-05
16 *343:s3 0
17 *344:s3 0.000505791
18 *52:482 0.00576346
19 *52:480 0.00314438
20 *52:456 0.00249655
21 *52:452 0.00196599
22 *52:445 0.00308176
23 *52:429 0.00543248
24 *52:425 0.00389175
25 *52:402 0.00669948
26 *52:400 0.00145028
27 *52:398 0.00247282
28 *52:390 0.00260653
29 *52:372 0.00948526
30 *52:370 0.00645268
31 *52:344 0.00507035
32 *52:340 0.00550215
33 *52:338 0.00457765
34 *52:317 0.00191167
35 *52:315 0.00187736
36 *52:313 0.00423644
37 *52:311 0.0040461
38 *52:283 0.00385412
39 *52:277 0.0063836
40 *52:267 0.0026351
41 *52:249 0.00718936
42 *52:243 0.0035397
43 *52:241 0.00320396
44 *52:217 0.0026662
45 *52:213 0.0021847
46 *52:211 0.00307728
47 *52:207 0.00230755
48 *52:190 0.00269792
49 *52:174 0.00773477
50 *52:169 0
51 *52:158 0.00241249
52 *52:150 0.00657081
53 *52:142 0.00526964
54 *52:116 0.00871193
55 *52:112 0.0045028
56 *52:102 0.00252985
57 *52:84 0.00624154
58 *52:78 0.0050787
59 *52:76 0.00470559
60 *52:74 0.00286229
61 *52:51 0.00290781
62 *52:47 0.00183932
63 *52:45 0.00179379
64 *52:43 0.00171888
65 *52:41 0.00288917
66 *52:35 0.00337768
67 *52:15 0.00463191
68 *52:9 0.0160563
69 *52:7 0.0141376
70 *52:5 0.0722209
71 *338:s3 *314:9 0.000658563
72 *341:s3 *61:101 0.000811119
73 *345:s3 *345:s4 0.000377235
74 *347:s3 *276:9 0.00115933
75 *52:15 *344:s4 6.63605e-06
76 *52:15 *344:s5 3.32859e-06
77 *52:74 *61:59 0
78 *52:74 *63:13 0.00140221
79 *52:78 *61:61 0
80 *52:78 *62:57 0
81 *52:78 *272:22 0
82 *52:84 *61:65 0
83 *52:84 *62:61 0
84 *52:102 *342:s4 0.00113646
85 *52:102 *61:65 0.000641936
86 *52:102 *62:67 0
87 *52:112 *62:67 0
88 *52:116 *62:71 0
89 *52:116 *62:85 0
90 *52:142 *61:171 6.17582e-05
91 *52:142 *62:85 0
92 *52:142 *62:99 0
93 *52:142 *329:9 0
94 *52:142 *330:11 0
95 *52:150 *61:167 0.000496475
96 *52:150 *62:99 0
97 *52:158 *61:167 0.000815423
98 *52:174 *62:99 0
99 *52:174 *62:103 0.00238066
100 *52:174 *62:123 0.000983527
101 *52:207 *335:data_in[9] 0.000378582
102 *52:211 *329:9 0.00339528
103 *52:213 *61:225 0
104 *52:213 *61:251 0
105 *52:213 *329:9 0.00149263
106 *52:213 *331:15 1.71523e-05
107 *52:217 *314:9 0.000327822
108 *52:243 *61:253 0.00764781
109 *52:243 *62:170 0
110 *52:267 *62:170 0
111 *52:277 *62:170 0
112 *52:277 *296:17 0.000701893
113 *52:283 *61:307 0
114 *52:338 *63:149 1.33927e-05
115 *52:370 *61:378 0.000689987
116 *52:370 *310:11 0
117 *52:372 *62:267 0.00118074
118 *52:390 *62:267 0.000449878
119 *52:390 *309:15 0.000725459
120 *52:398 *62:269 0
121 *52:402 *61:435 0.00343504
122 *52:402 *62:269 0
123 *52:402 *62:287 0.000226429
124 *52:402 *325:15 5.10626e-06
125 *52:425 *61:435 0.000502123
126 *52:425 *62:287 0.00265417
127 *52:425 *62:299 8.88726e-05
128 *52:429 *61:494 0.000117356
129 *52:429 *62:299 0
130 *52:445 *61:492 0.000345706
131 *52:445 *291:14 0
132 *52:452 *61:494 0.00668264
133 *52:452 *61:504 0.000582066
134 *52:452 *300:17 0.00675924
135 *52:452 *323:12 2.11066e-05
136 *52:456 *345:s4 2.43662e-05
137 *52:456 *61:504 0.000237141
138 *52:482 *337:s4 0.000122849
139 *52:482 *61:523 0.0033686
140 *343:s1 *52:47 7.19094e-05
141 *351:s2 *52:311 7.6648e-05
142 *30:55 *52:43 0.0018766
143 *30:249 *52:317 7.46951e-05
144 *30:249 *52:338 0.00206049
145 *30:262 *52:338 0.000149416
146 *41:9 *52:9 0.0375971
147 *41:25 *52:43 0
148 *41:247 *52:311 2.42241e-05
149 *41:251 *52:313 0.00386308
150 *41:251 *52:338 6.75856e-05
151 *41:257 *52:338 0
152 *41:259 *52:340 0.00882405
153 *41:277 *52:344 0.00333954
*RES
1 io_in[2] *52:5 254.15 
2 *52:5 *52:7 8 
3 *52:7 *52:9 483.285 
4 *52:9 *52:15 22.496 
5 *52:15 *344:s3 20.662 
6 *52:15 *52:35 50.1493 
7 *52:35 *52:41 19.7483 
8 *52:41 *52:43 52.0861 
9 *52:43 *52:45 15 
10 *52:45 *52:47 38.2593 
11 *52:47 *52:51 15.8027 
12 *52:51 *343:s3 15 
13 *52:51 *52:74 47.2646 
14 *52:74 *52:76 8 
15 *52:76 *52:78 107.196 
16 *52:78 *52:84 17.344 
17 *52:84 *52:102 45.0186 
18 *52:102 *342:s3 10.1854 
19 *52:84 *52:112 78.9836 
20 *52:112 *52:116 24.0493 
21 *52:116 *341:s3 49.5076 
22 *52:116 *52:142 113.535 
23 *52:142 *52:150 19.2584 
24 *52:150 *52:158 37.5984 
25 *52:158 *340:s3 17.8016 
26 *340:s3 *52:169 0.225556 
27 *52:150 *52:174 105.084 
28 *52:174 *52:190 42.4056 
29 *52:190 *339:s3 8 
30 *52:174 *52:207 34.0578 
31 *52:207 *52:211 44.2871 
32 *52:211 *52:213 55.7007 
33 *52:213 *52:217 9.68747 
34 *52:217 *338:s3 44.8328 
35 *52:217 *52:241 8 
36 *52:241 *52:243 108.605 
37 *52:243 *52:249 16.9147 
38 *52:249 *52:267 43.7133 
39 *52:267 *352:s3 10.1854 
40 *52:249 *52:277 100.858 
41 *52:277 *52:283 22.9253 
42 *52:283 *351:s3 25.4459 
43 *52:283 *52:311 25.9742 
44 *52:311 *52:313 93.9911 
45 *52:313 *52:315 15 
46 *52:315 *52:317 42.5471 
47 *52:317 *350:s3 30.6525 
48 *52:313 *52:338 28.8158 
49 *52:338 *52:340 112.126 
50 *52:340 *52:344 18.0165 
51 *52:344 *349:s3 38.1274 
52 *52:344 *52:370 15.1829 
53 *52:370 *52:372 107.901 
54 *52:372 *52:390 49.3072 
55 *52:390 *348:s3 1.48107 
56 *52:372 *52:398 56.1357 
57 *52:398 *52:400 0.621429 
58 *52:400 *52:402 50.5014 
59 *52:402 *347:s3 46.7296 
60 *52:402 *52:425 99.8636 
61 *52:425 *52:429 18.2286 
62 *52:429 *52:445 45.8148 
63 *52:445 *346:s3 8 
64 *52:429 *52:452 102.971 
65 *52:452 *52:456 9.77333 
66 *52:456 *345:s3 37.9225 
67 *52:456 *52:480 8 
68 *52:480 *52:482 97.3364 
69 *52:482 *337:s3 48.5248 
*END

*D_NET *61 0.40192
*CONN
*P io_in[3] I
*I *337:s4 I *D sky130_osu_ring_oscillator_mpr2aa_8_b0r1
*I *345:s4 I *D sky130_osu_ring_oscillator_mpr2at_8_b0r1
*I *346:s4 I *D sky130_osu_ring_oscillator_mpr2ca_8_b0r1
*I *347:s4 I *D sky130_osu_ring_oscillator_mpr2ct_8_b0r1
*I *348:s4 I *D sky130_osu_ring_oscillator_mpr2ea_8_b0r1
*I *349:s4 I *D sky130_osu_ring_oscillator_mpr2et_8_b0r1
*I *350:s4 I *D sky130_osu_ring_oscillator_mpr2xa_8_b0r1
*I *351:s4 I *D sky130_osu_ring_oscillator_mpr2ya_8_b0r1
*I *352:s4 I *D sky130_osu_ring_oscillator_mpr2aa_8_b0r2
*I *338:s4 I *D sky130_osu_ring_oscillator_mpr2at_8_b0r2
*I *339:s4 I *D sky130_osu_ring_oscillator_mpr2ca_8_b0r2
*I *340:s4 I *D sky130_osu_ring_oscillator_mpr2ct_8_b0r2
*I *341:s4 I *D sky130_osu_ring_oscillator_mpr2ea_8_b0r2
*I *342:s4 I *D sky130_osu_ring_oscillator_mpr2et_8_b0r2
*I *343:s4 I *D sky130_osu_ring_oscillator_mpr2xa_8_b0r2
*I *344:s4 I *D sky130_osu_ring_oscillator_mpr2ya_8_b0r2
*CAP
1 io_in[3] 0.0734973
2 *337:s4 0.00130751
3 *345:s4 0.00111491
4 *346:s4 0.00138402
5 *347:s4 0.00181943
6 *348:s4 0.000308268
7 *349:s4 0.00116299
8 *350:s4 0.00203193
9 *351:s4 0.000130902
10 *352:s4 0.000361761
11 *338:s4 0.00102344
12 *339:s4 0.000127027
13 *340:s4 6.12722e-05
14 *341:s4 0.000777773
15 *342:s4 0.00116741
16 *343:s4 0.000893739
17 *344:s4 0.00152532
18 *61:523 0.00394593
19 *61:521 0.00263842
20 *61:504 0.0019252
21 *61:494 0.00320828
22 *61:492 0.00288165
23 *61:465 0.00628829
24 *61:463 0.00442061
25 *61:439 0.00203976
26 *61:435 0.00164865
27 *61:433 0.00271169
28 *61:427 0.00439057
29 *61:425 0.00360737
30 *61:398 0.00143471
31 *61:390 0.00202134
32 *61:380 0.00411692
33 *61:378 0.0036766
34 *61:350 0.0052762
35 *61:348 0.00315845
36 *61:346 0.000803158
37 *61:309 0.00531461
38 *61:307 0.00433958
39 *61:283 0.000693027
40 *61:279 0.00434147
41 *61:259 0.00572418
42 *61:253 0.00459849
43 *61:251 0.00403258
44 *61:225 0.00430291
45 *61:217 0.0049708
46 *61:215 0.00330712
47 *61:211 0.001244
48 *61:187 0.00171673
49 *61:171 0.00518475
50 *61:169 0.0039867
51 *61:167 0.00210012
52 *61:141 0.00217821
53 *61:137 0.0016288
54 *61:125 0.00500631
55 *61:101 0.00488321
56 *61:95 0.00532358
57 *61:93 0.00461247
58 *61:65 0.00146058
59 *61:61 0.00514162
60 *61:59 0.00605725
61 *61:39 0.00210255
62 *61:37 0.00255452
63 *61:35 0.00282994
64 *61:11 0.00180074
65 *61:9 0.0123563
66 *61:7 0.0123563
67 *61:5 0.0734973
68 *337:s4 *300:13 0
69 *337:s4 *316:15 0
70 *343:s4 *343:s5 0.000495846
71 *344:s4 *344:s5 0.00160245
72 *345:s4 *62:325 0.000852493
73 *346:s4 *291:14 0.000585658
74 *347:s4 *276:9 0.000366858
75 *350:s4 *264:10 0.000382253
76 *350:s4 *280:10 0.000635477
77 *350:s4 *312:16 0
78 *61:35 *344:s5 0.00141565
79 *61:37 *62:35 0.00713132
80 *61:37 *62:55 1.76196e-05
81 *61:59 *343:s5 4.08664e-05
82 *61:59 *62:55 0.000642052
83 *61:61 *342:s5 0
84 *61:65 *62:61 0.000497207
85 *61:65 *62:65 0.000453345
86 *61:95 *62:67 0
87 *61:95 *62:71 0
88 *61:95 *62:85 0
89 *61:137 *286:11 0
90 *61:171 *62:99 0
91 *61:171 *62:103 0
92 *61:171 *329:9 0
93 *61:187 *317:19 0
94 *61:217 *315:5 0
95 *61:251 *62:150 0
96 *61:279 *313:16 0.00112865
97 *61:283 *313:16 5.9396e-05
98 *61:346 *62:227 5.06774e-05
99 *61:350 *62:229 0.00224897
100 *61:350 *62:233 0.00157168
101 *61:378 *62:233 0.000312418
102 *61:378 *62:247 0.00103285
103 *61:378 *310:11 0
104 *61:390 *348:s5 0.000100477
105 *61:390 *326:13 2.23467e-05
106 *61:398 *348:s5 0.000195486
107 *61:425 *310:7 3.04791e-05
108 *61:427 *309:11 0