*SPEF "ieee 1481-1999"
*DESIGN "user_project_wrapper"
*DATE "11:11:11 Fri 11 11, 1111"
*VENDOR "OpenRCX"
*PROGRAM "Parallel Extraction"
*VERSION "1.0"
*DESIGN_FLOW "NAME_SCOPE LOCAL" "PIN_CAP NONE"
*DIVIDER /
*DELIMITER :
*BUS_DELIMITER []
*T_UNIT 1 NS
*C_UNIT 1 PF
*R_UNIT 1 OHM
*L_UNIT 1 HENRY

*NAME_MAP
*1 analog_io[0]
*2 analog_io[10]
*3 analog_io[11]
*4 analog_io[12]
*5 analog_io[13]
*6 analog_io[14]
*7 analog_io[15]
*8 analog_io[16]
*9 analog_io[17]
*10 analog_io[18]
*11 analog_io[19]
*12 analog_io[1]
*13 analog_io[20]
*14 analog_io[21]
*15 analog_io[22]
*16 analog_io[23]
*17 analog_io[24]
*18 analog_io[25]
*19 analog_io[26]
*20 analog_io[27]
*21 analog_io[28]
*22 analog_io[2]
*23 analog_io[3]
*24 analog_io[4]
*25 analog_io[5]
*26 analog_io[6]
*27 analog_io[7]
*28 analog_io[8]
*29 analog_io[9]
*30 io_in[0]
*31 io_in[10]
*32 io_in[11]
*33 io_in[12]
*34 io_in[13]
*35 io_in[14]
*36 io_in[15]
*37 io_in[16]
*38 io_in[17]
*39 io_in[18]
*40 io_in[19]
*41 io_in[1]
*42 io_in[20]
*43 io_in[21]
*44 io_in[22]
*45 io_in[23]
*46 io_in[24]
*47 io_in[25]
*48 io_in[26]
*49 io_in[27]
*50 io_in[28]
*51 io_in[29]
*52 io_in[2]
*53 io_in[30]
*54 io_in[31]
*55 io_in[32]
*56 io_in[33]
*57 io_in[34]
*58 io_in[35]
*59 io_in[36]
*60 io_in[37]
*61 io_in[3]
*62 io_in[4]
*63 io_in[5]
*64 io_in[6]
*65 io_in[7]
*66 io_in[8]
*67 io_in[9]
*68 io_oeb[0]
*69 io_oeb[10]
*70 io_oeb[11]
*71 io_oeb[12]
*72 io_oeb[13]
*73 io_oeb[14]
*74 io_oeb[15]
*75 io_oeb[16]
*76 io_oeb[17]
*77 io_oeb[18]
*78 io_oeb[19]
*79 io_oeb[1]
*80 io_oeb[20]
*81 io_oeb[21]
*82 io_oeb[22]
*83 io_oeb[23]
*84 io_oeb[24]
*85 io_oeb[25]
*86 io_oeb[26]
*87 io_oeb[27]
*88 io_oeb[28]
*89 io_oeb[29]
*90 io_oeb[2]
*91 io_oeb[30]
*92 io_oeb[31]
*93 io_oeb[32]
*94 io_oeb[33]
*95 io_oeb[34]
*96 io_oeb[35]
*97 io_oeb[36]
*98 io_oeb[37]
*99 io_oeb[3]
*100 io_oeb[4]
*101 io_oeb[5]
*102 io_oeb[6]
*103 io_oeb[7]
*104 io_oeb[8]
*105 io_oeb[9]
*106 io_out[0]
*107 io_out[10]
*108 io_out[11]
*109 io_out[12]
*110 io_out[13]
*111 io_out[14]
*112 io_out[15]
*113 io_out[16]
*114 io_out[17]
*115 io_out[18]
*116 io_out[19]
*117 io_out[1]
*118 io_out[20]
*119 io_out[21]
*120 io_out[22]
*121 io_out[23]
*122 io_out[24]
*123 io_out[25]
*124 io_out[26]
*125 io_out[27]
*126 io_out[28]
*127 io_out[29]
*128 io_out[2]
*129 io_out[30]
*130 io_out[31]
*131 io_out[32]
*132 io_out[33]
*133 io_out[34]
*134 io_out[35]
*135 io_out[36]
*136 io_out[37]
*137 io_out[3]
*138 io_out[4]
*139 io_out[5]
*140 io_out[6]
*141 io_out[7]
*142 io_out[8]
*143 io_out[9]
*146 wb_clk_i
*147 wb_rst_i
*148 wbs_ack_o
*149 wbs_adr_i[0]
*150 wbs_adr_i[10]
*151 wbs_adr_i[11]
*152 wbs_adr_i[12]
*153 wbs_adr_i[13]
*154 wbs_adr_i[14]
*155 wbs_adr_i[15]
*156 wbs_adr_i[16]
*157 wbs_adr_i[17]
*158 wbs_adr_i[18]
*159 wbs_adr_i[19]
*160 wbs_adr_i[1]
*161 wbs_adr_i[20]
*162 wbs_adr_i[21]
*163 wbs_adr_i[22]
*164 wbs_adr_i[23]
*165 wbs_adr_i[24]
*166 wbs_adr_i[25]
*167 wbs_adr_i[26]
*168 wbs_adr_i[27]
*169 wbs_adr_i[28]
*170 wbs_adr_i[29]
*171 wbs_adr_i[2]
*172 wbs_adr_i[30]
*173 wbs_adr_i[31]
*174 wbs_adr_i[3]
*175 wbs_adr_i[4]
*176 wbs_adr_i[5]
*177 wbs_adr_i[6]
*178 wbs_adr_i[7]
*179 wbs_adr_i[8]
*180 wbs_adr_i[9]
*181 wbs_cyc_i
*182 wbs_dat_i[0]
*183 wbs_dat_i[10]
*184 wbs_dat_i[11]
*185 wbs_dat_i[12]
*186 wbs_dat_i[13]
*187 wbs_dat_i[14]
*188 wbs_dat_i[15]
*189 wbs_dat_i[16]
*190 wbs_dat_i[17]
*191 wbs_dat_i[18]
*192 wbs_dat_i[19]
*193 wbs_dat_i[1]
*194 wbs_dat_i[20]
*195 wbs_dat_i[21]
*196 wbs_dat_i[22]
*197 wbs_dat_i[23]
*198 wbs_dat_i[24]
*199 wbs_dat_i[25]
*200 wbs_dat_i[26]
*201 wbs_dat_i[27]
*202 wbs_dat_i[28]
*203 wbs_dat_i[29]
*204 wbs_dat_i[2]
*205 wbs_dat_i[30]
*206 wbs_dat_i[31]
*207 wbs_dat_i[3]
*208 wbs_dat_i[4]
*209 wbs_dat_i[5]
*210 wbs_dat_i[6]
*211 wbs_dat_i[7]
*212 wbs_dat_i[8]
*213 wbs_dat_i[9]
*214 wbs_dat_o[0]
*215 wbs_dat_o[10]
*216 wbs_dat_o[11]
*217 wbs_dat_o[12]
*218 wbs_dat_o[13]
*219 wbs_dat_o[14]
*220 wbs_dat_o[15]
*221 wbs_dat_o[16]
*222 wbs_dat_o[17]
*223 wbs_dat_o[18]
*224 wbs_dat_o[19]
*225 wbs_dat_o[1]
*226 wbs_dat_o[20]
*227 wbs_dat_o[21]
*228 wbs_dat_o[22]
*229 wbs_dat_o[23]
*230 wbs_dat_o[24]
*231 wbs_dat_o[25]
*232 wbs_dat_o[26]
*233 wbs_dat_o[27]
*234 wbs_dat_o[28]
*235 wbs_dat_o[29]
*236 wbs_dat_o[2]
*237 wbs_dat_o[30]
*238 wbs_dat_o[31]
*239 wbs_dat_o[3]
*240 wbs_dat_o[4]
*241 wbs_dat_o[5]
*242 wbs_dat_o[6]
*243 wbs_dat_o[7]
*244 wbs_dat_o[8]
*245 wbs_dat_o[9]
*246 wbs_sel_i[0]
*247 wbs_sel_i[1]
*248 wbs_sel_i[2]
*249 wbs_sel_i[3]
*250 wbs_stb_i
*251 wbs_we_i
*252 x1\[0\]
*253 x1\[10\]
*254 x1\[11\]
*255 x1\[12\]
*256 x1\[13\]
*257 x1\[14\]
*258 x1\[15\]
*259 x1\[1\]
*260 x1\[2\]
*261 x1\[3\]
*262 x1\[4\]
*263 x1\[5\]
*264 x1\[6\]
*265 x1\[7\]
*266 x1\[8\]
*267 x1\[9\]
*268 x2\[0\]
*269 x2\[10\]
*270 x2\[11\]
*271 x2\[12\]
*272 x2\[13\]
*273 x2\[14\]
*274 x2\[15\]
*275 x2\[1\]
*276 x2\[2\]
*277 x2\[3\]
*278 x2\[4\]
*279 x2\[5\]
*280 x2\[6\]
*281 x2\[7\]
*282 x2\[8\]
*283 x2\[9\]
*284 x3\[0\]
*285 x3\[10\]
*286 x3\[11\]
*287 x3\[12\]
*288 x3\[13\]
*289 x3\[14\]
*290 x3\[15\]
*291 x3\[1\]
*292 x3\[2\]
*293 x3\[3\]
*294 x3\[4\]
*295 x3\[5\]
*296 x3\[6\]
*297 x3\[7\]
*298 x3\[8\]
*299 x3\[9\]
*300 x4\[0\]
*301 x4\[10\]
*302 x4\[11\]
*303 x4\[12\]
*304 x4\[13\]
*305 x4\[14\]
*306 x4\[15\]
*307 x4\[1\]
*308 x4\[2\]
*309 x4\[3\]
*310 x4\[4\]
*311 x4\[5\]
*312 x4\[6\]
*313 x4\[7\]
*314 x4\[8\]
*315 x4\[9\]
*316 x5\[0\]
*317 x5\[10\]
*318 x5\[11\]
*319 x5\[12\]
*320 x5\[13\]
*321 x5\[14\]
*322 x5\[15\]
*323 x5\[1\]
*324 x5\[2\]
*325 x5\[3\]
*326 x5\[4\]
*327 x5\[5\]
*328 x5\[6\]
*329 x5\[7\]
*330 x5\[8\]
*331 x5\[9\]
*332 mprj1
*333 mprj2
*334 mprj3
*335 mprj4
*336 mprj5
*337 ro1
*338 ro10
*339 ro11
*340 ro12
*341 ro13
*342 ro14
*343 ro15
*344 ro16
*345 ro2
*346 ro3
*347 ro4
*348 ro5
*349 ro6
*350 ro7
*351 ro8
*352 ro9

*PORTS
analog_io[0] I
analog_io[10] I
analog_io[11] I
analog_io[12] I
analog_io[13] I
analog_io[14] I
analog_io[15] I
analog_io[16] I
analog_io[17] I
analog_io[18] I
analog_io[19] I
analog_io[1] I
analog_io[20] I
analog_io[21] I
analog_io[22] I
analog_io[23] I
analog_io[24] I
analog_io[25] I
analog_io[26] I
analog_io[27] I
analog_io[28] I
analog_io[2] I
analog_io[3] I
analog_io[4] I
analog_io[5] I
analog_io[6] I
analog_io[7] I
analog_io[8] I
analog_io[9] I
io_in[0] I
io_in[10] I
io_in[11] I
io_in[12] I
io_in[13] I
io_in[14] I
io_in[15] I
io_in[16] I
io_in[17] I
io_in[18] I
io_in[19] I
io_in[1] I
io_in[20] I
io_in[21] I
io_in[22] I
io_in[23] I
io_in[24] I
io_in[25] I
io_in[26] I
io_in[27] I
io_in[28] I
io_in[29] I
io_in[2] I
io_in[30] I
io_in[31] I
io_in[32] I
io_in[33] I
io_in[34] I
io_in[35] I
io_in[36] I
io_in[37] I
io_in[3] I
io_in[4] I
io_in[5] I
io_in[6] I
io_in[7] I
io_in[8] I
io_in[9] I
io_oeb[0] O
io_oeb[10] O
io_oeb[11] O
io_oeb[12] O
io_oeb[13] O
io_oeb[14] O
io_oeb[15] O
io_oeb[16] O
io_oeb[17] O
io_oeb[18] O
io_oeb[19] O
io_oeb[1] O
io_oeb[20] O
io_oeb[21] O
io_oeb[22] O
io_oeb[23] O
io_oeb[24] O
io_oeb[25] O
io_oeb[26] O
io_oeb[27] O
io_oeb[28] O
io_oeb[29] O
io_oeb[2] O
io_oeb[30] O
io_oeb[31] O
io_oeb[32] O
io_oeb[33] O
io_oeb[34] O
io_oeb[35] O
io_oeb[36] O
io_oeb[37] O
io_oeb[3] O
io_oeb[4] O
io_oeb[5] O
io_oeb[6] O
io_oeb[7] O
io_oeb[8] O
io_oeb[9] O
io_out[0] O
io_out[10] O
io_out[11] O
io_out[12] O
io_out[13] O
io_out[14] O
io_out[15] O
io_out[16] O
io_out[17] O
io_out[18] O
io_out[19] O
io_out[1] O
io_out[20] O
io_out[21] O
io_out[22] O
io_out[23] O
io_out[24] O
io_out[25] O
io_out[26] O
io_out[27] O
io_out[28] O
io_out[29] O
io_out[2] O
io_out[30] O
io_out[31] O
io_out[32] O
io_out[33] O
io_out[34] O
io_out[35] O
io_out[36] O
io_out[37] O
io_out[3] O
io_out[4] O
io_out[5] O
io_out[6] O
io_out[7] O
io_out[8] O
io_out[9] O
wb_clk_i I
wb_rst_i I
wbs_ack_o O
wbs_adr_i[0] I
wbs_adr_i[10] I
wbs_adr_i[11] I
wbs_adr_i[12] I
wbs_adr_i[13] I
wbs_adr_i[14] I
wbs_adr_i[15] I
wbs_adr_i[16] I
wbs_adr_i[17] I
wbs_adr_i[18] I
wbs_adr_i[19] I
wbs_adr_i[1] I
wbs_adr_i[20] I
wbs_adr_i[21] I
wbs_adr_i[22] I
wbs_adr_i[23] I
wbs_adr_i[24] I
wbs_adr_i[25] I
wbs_adr_i[26] I
wbs_adr_i[27] I
wbs_adr_i[28] I
wbs_adr_i[29] I
wbs_adr_i[2] I
wbs_adr_i[30] I
wbs_adr_i[31] I
wbs_adr_i[3] I
wbs_adr_i[4] I
wbs_adr_i[5] I
wbs_adr_i[6] I
wbs_adr_i[7] I
wbs_adr_i[8] I
wbs_adr_i[9] I
wbs_cyc_i I
wbs_dat_i[0] I
wbs_dat_i[10] I
wbs_dat_i[11] I
wbs_dat_i[12] I
wbs_dat_i[13] I
wbs_dat_i[14] I
wbs_dat_i[15] I
wbs_dat_i[16] I
wbs_dat_i[17] I
wbs_dat_i[18] I
wbs_dat_i[19] I
wbs_dat_i[1] I
wbs_dat_i[20] I
wbs_dat_i[21] I
wbs_dat_i[22] I
wbs_dat_i[23] I
wbs_dat_i[24] I
wbs_dat_i[25] I
wbs_dat_i[26] I
wbs_dat_i[27] I
wbs_dat_i[28] I
wbs_dat_i[29] I
wbs_dat_i[2] I
wbs_dat_i[30] I
wbs_dat_i[31] I
wbs_dat_i[3] I
wbs_dat_i[4] I
wbs_dat_i[5] I
wbs_dat_i[6] I
wbs_dat_i[7] I
wbs_dat_i[8] I
wbs_dat_i[9] I
wbs_dat_o[0] O
wbs_dat_o[10] O
wbs_dat_o[11] O
wbs_dat_o[12] O
wbs_dat_o[13] O
wbs_dat_o[14] O
wbs_dat_o[15] O
wbs_dat_o[16] O
wbs_dat_o[17] O
wbs_dat_o[18] O
wbs_dat_o[19] O
wbs_dat_o[1] O
wbs_dat_o[20] O
wbs_dat_o[21] O
wbs_dat_o[22] O
wbs_dat_o[23] O
wbs_dat_o[24] O
wbs_dat_o[25] O
wbs_dat_o[26] O
wbs_dat_o[27] O
wbs_dat_o[28] O
wbs_dat_o[29] O
wbs_dat_o[2] O
wbs_dat_o[30] O
wbs_dat_o[31] O
wbs_dat_o[3] O
wbs_dat_o[4] O
wbs_dat_o[5] O
wbs_dat_o[6] O
wbs_dat_o[7] O
wbs_dat_o[8] O
wbs_dat_o[9] O
wbs_sel_i[0] I
wbs_sel_i[1] I
wbs_sel_i[2] I
wbs_sel_i[3] I
wbs_stb_i I
wbs_we_i I

*D_NET *30 0.439319
*CONN
*P io_in[0] I
*I *344:s1 I *D sky130_osu_ring_oscillator_mpr2ya_8_b0r2
*I *343:s1 I *D sky130_osu_ring_oscillator_mpr2xa_8_b0r2
*I *342:s1 I *D sky130_osu_ring_oscillator_mpr2et_8_b0r2
*I *350:s1 I *D sky130_osu_ring_oscillator_mpr2xa_8_b0r1
*I *347:s1 I *D sky130_osu_ring_oscillator_mpr2ct_8_b0r1
*I *345:s1 I *D sky130_osu_ring_oscillator_mpr2at_8_b0r1
*I *337:s1 I *D sky130_osu_ring_oscillator_mpr2aa_8_b0r1
*I *346:s1 I *D sky130_osu_ring_oscillator_mpr2ca_8_b0r1
*I *348:s1 I *D sky130_osu_ring_oscillator_mpr2ea_8_b0r1
*I *349:s1 I *D sky130_osu_ring_oscillator_mpr2et_8_b0r1
*I *351:s1 I *D sky130_osu_ring_oscillator_mpr2ya_8_b0r1
*I *352:s1 I *D sky130_osu_ring_oscillator_mpr2aa_8_b0r2
*I *338:s1 I *D sky130_osu_ring_oscillator_mpr2at_8_b0r2
*I *339:s1 I *D sky130_osu_ring_oscillator_mpr2ca_8_b0r2
*I *340:s1 I *D sky130_osu_ring_oscillator_mpr2ct_8_b0r2
*I *341:s1 I *D sky130_osu_ring_oscillator_mpr2ea_8_b0r2
*CAP
1 io_in[0] 0.0739818
2 *344:s1 0.000586107
3 *343:s1 3.98036e-05
4 *342:s1 0.000243586
5 *350:s1 9.82742e-05
6 *347:s1 0.000160322
7 *345:s1 0.000574797
8 *337:s1 0.000809664
9 *346:s1 0.000226332
10 *348:s1 0.000422886
11 *349:s1 0.000628214
12 *351:s1 0.000121431
13 *352:s1 0.000498974
14 *338:s1 0
15 *339:s1 0.000172098
16 *340:s1 0.000458617
17 *341:s1 0
18 *30:251 0.00469041
19 *30:249 0.003966
20 *30:245 0.000660054
21 *30:243 0.00328877
22 *30:229 0.00646856
23 *30:227 0.00338068
24 *30:223 0.0053461
25 *30:208 0.00891116
26 *30:206 0.00493671
27 *30:192 0.00650679
28 *30:190 0.00538922
29 *30:184 0.0051355
30 *30:182 0.00445927
31 *30:164 0.00114986
32 *30:148 0.00352097
33 *30:146 0.00331413
34 *30:132 0.00414479
35 *30:125 0.000619873
36 *30:117 0.00468034
37 *30:115 0.00193103
38 *30:109 0.00408115
39 *30:107 0.00335337
40 *30:92 0.000914734
41 *30:88 0.00345216
42 *30:86 0.00386026
43 *30:66 0.00622382
44 *30:59 0.000715552
45 *30:51 0.00938576
46 *30:49 0.00428698
47 *30:43 0.00194363
48 *30:35 0.00620087
49 *30:33 0.00477463
50 *30:27 0.000964801
51 *30:21 0.00315443
52 *30:19 0.00305255
53 *30:15 0.00366886
54 *30:9 0.0425114
55 *30:7 0.0398287
56 *30:5 0.0739818
57 *337:s1 *337:s2 3.59549e-06
58 *337:s1 *337:start 0
59 *337:s1 *41:406 1.96584e-05
60 *340:s1 *340:start 0.000155124
61 *346:s1 *346:start 2.92412e-05
62 *349:s1 *349:start 2.04034e-05
63 *352:s1 *352:start 0.000100318
64 *30:9 *62:37 0.000698759
65 *30:9 *62:39 0
66 *30:15 *41:13 0.00520058
67 *30:15 *41:21 0.00215401
68 *30:19 *41:21 0.000234702
69 *30:21 *41:23 0.00728036
70 *30:43 *41:45 0.00139076
71 *30:43 *41:75 0.000446525
72 *30:59 *341:start 0.000152225
73 *30:88 *41:123 0.00745911
74 *30:92 *41:127 0.000555616
75 *30:107 *41:127 0.000322875
76 *30:115 *41:151 0.000401398
77 *30:117 *41:155 0.000825453
78 *30:125 *338:start 3.23573e-05
79 *30:132 *41:155 0.000286821
80 *30:132 *41:161 0.00762754
81 *30:146 *41:161 0.000812756
82 *30:146 *41:185 0.000506493
83 *30:146 *41:187 0.000118603
84 *30:148 *41:187 0.0069648
85 *30:164 *351:s2 0
86 *30:182 *351:s2 0
87 *30:184 *264:10 0
88 *30:192 *41:215 0.000202969
89 *30:192 *41:255 0.00104999
90 *30:206 *41:255 0.000185801
91 *30:229 *41:363 0.00750555
92 *30:243 *41:363 0.00117068
93 *30:243 *41:386 0.0074636
94 *30:249 *345:start 6.11593e-05
95 *30:251 *41:386 0
96 *30:251 *41:406 0
*RES
1 io_in[0] *30:5 254.236 
2 *30:5 *30:7 8 
3 *30:7 *30:9 903.039 
4 *30:9 *30:15 21.7629 
5 *30:15 *30:19 9.64453 
6 *30:19 *30:21 95.2236 
7 *30:21 *30:27 9.82747 
8 *30:27 *30:33 9.69307 
9 *30:33 *30:35 99.4493 
10 *30:35 *30:43 42.0184 
11 *30:43 *30:49 17.1723 
12 *30:49 *30:51 91.5261 
13 *30:51 *30:59 46.5352 
14 *30:59 *341:s1 15 
15 *30:51 *30:66 108.957 
16 *30:66 *340:s1 26.3048 
17 *30:66 *30:86 32.7213 
18 *30:86 *30:88 95.9279 
19 *30:88 *30:92 10.3315 
20 *30:92 *339:s1 8.8792 
21 *30:92 *30:107 8.79707 
22 *30:107 *30:109 74.7993 
23 *30:109 *30:115 19.0613 
24 *30:115 *30:117 33.0704 
25 *30:117 *30:125 28.8164 
26 *30:125 *338:s1 23 
27 *30:117 *30:132 106.844 
28 *30:132 *352:s1 26.3255 
29 *30:132 *30:146 22.1954 
30 *30:146 *30:148 89.5893 
31 *30:148 *30:164 28.0719 
32 *30:164 *351:s1 10.7446 
33 *30:164 *30:182 8.50773 
34 *30:182 *30:184 99.4493 
35 *30:184 *30:190 18.7179 
36 *30:190 *30:192 114.768 
37 *30:192 *349:s1 28.05 
38 *30:192 *30:206 28.2439 
39 *30:206 *30:208 84.1932 
40 *30:208 *348:s1 47.3939 
41 *30:208 *30:223 107.372 
42 *30:223 *30:227 9.59071 
43 *30:227 *30:229 99.6046 
44 *30:229 *346:s1 19.7798 
45 *30:229 *30:243 111.07 
46 *30:243 *30:245 15 
47 *30:245 *30:249 17.0507 
48 *30:249 *30:251 89.9104 
49 *30:251 *337:s1 31.9443 
50 *30:245 *345:s1 35.3613 
51 *30:223 *347:s1 18.7648 
52 *30:184 *350:s1 2.18536 
53 *30:35 *342:s1 5.95018 
54 *30:27 *343:s1 23.4666 
55 *30:15 *344:s1 35.4757 
*END

*D_NET *41 0.47248
*CONN
*P io_in[1] I
*I *344:s2 I *D sky130_osu_ring_oscillator_mpr2ya_8_b0r2
*I *338:s2 I *D sky130_osu_ring_oscillator_mpr2at_8_b0r2
*I *337:s2 I *D sky130_osu_ring_oscillator_mpr2aa_8_b0r1
*I *345:s2 I *D sky130_osu_ring_oscillator_mpr2at_8_b0r1
*I *346:s2 I *D sky130_osu_ring_oscillator_mpr2ca_8_b0r1
*I *347:s2 I *D sky130_osu_ring_oscillator_mpr2ct_8_b0r1
*I *348:s2 I *D sky130_osu_ring_oscillator_mpr2ea_8_b0r1
*I *349:s2 I *D sky130_osu_ring_oscillator_mpr2et_8_b0r1
*I *350:s2 I *D sky130_osu_ring_oscillator_mpr2xa_8_b0r1
*I *351:s2 I *D sky130_osu_ring_oscillator_mpr2ya_8_b0r1
*I *352:s2 I *D sky130_osu_ring_oscillator_mpr2aa_8_b0r2
*I *339:s2 I *D sky130_osu_ring_oscillator_mpr2ca_8_b0r2
*I *340:s2 I *D sky130_osu_ring_oscillator_mpr2ct_8_b0r2
*I *341:s2 I *D sky130_osu_ring_oscillator_mpr2ea_8_b0r2
*I *342:s2 I *D sky130_osu_ring_oscillator_mpr2et_8_b0r2
*I *343:s2 I *D sky130_osu_ring_oscillator_mpr2xa_8_b0r2
*CAP
1 io_in[1] 0.0654447
2 *344:s2 0.000635473
3 *338:s2 0.00239939
4 *337:s2 0.00237039
5 *345:s2 0.00214035
6 *346:s2 0.0019969
7 *347:s2 0.00251339
8 *348:s2 0.000529674
9 *349:s2 0.000246557
10 *350:s2 6.91572e-05
11 *351:s2 0.00204103
12 *352:s2 0.00211037
13 *339:s2 0.00027372
14 *340:s2 0
15 *341:s2 9.53112e-05
16 *342:s2 7.0206e-05
17 *343:s2 0.00193508
18 *41:406 0.0061656
19 *41:386 0.00896028
20 *41:363 0.00829661
21 *41:361 0.00327499
22 *41:359 0.00238603
23 *41:321 0.00261742
24 *41:319 0.004502
25 *41:315 0.00232264
26 *41:295 0.00139479
27 *41:287 0.0044101
28 *41:285 0.00334979
29 *41:263 0.00232659
30 *41:255 0.00459858
31 *41:243 0.00617691
32 *41:241 0.00367695
33 *41:225 0.00161682
34 *41:215 0.00591926
35 *41:210 0
36 *41:187 0.00964625
37 *41:185 0.00340728
38 *41:161 0.00535065
39 *41:159 0.00309512
40 *41:155 0.003896
41 *41:151 0.00256632
42 *41:145 0.00456018
43 *41:143 0.00353944
44 *41:127 0.00142606
45 *41:123 0.00386483
46 *41:116 0.00188932
47 *41:100 0.00992464
48 *41:89 0.00199407
49 *41:77 0.00707935
50 *41:75 0.00459992
51 *41:65 0.00172686
52 *41:45 0.0089565
53 *41:27 0.00505552
54 *41:23 0.00307547
55 *41:21 0.00397001
56 *41:13 0.00928051
57 *41:9 0.0375571
58 *41:7 0.0301578
59 *41:5 0.0654447
60 *343:s2 *52:55 0.000544281
61 *41:13 *344:s3 0.001936
62 *41:13 *52:13 0.00871274
63 *41:45 *52:57 0.00827132
64 *41:65 *52:61 0.00300404
65 *41:75 *52:57 5.2952e-05
66 *41:295 *278:12 0.000837709
67 *337:s1 *337:s2 3.59549e-06
68 *337:s1 *41:406 1.96584e-05
69 *30:15 *41:13 0.00520058
70 *30:15 *41:21 0.00215401
71 *30:19 *41:21 0.000234702
72 *30:21 *41:23 0.00728036
73 *30:43 *41:45 0.00139076
74 *30:43 *41:75 0.000446525
75 *30:88 *41:123 0.00745911
76 *30:92 *41:127 0.000555616
77 *30:107 *41:127 0.000322875
78 *30:115 *41:151 0.000401398
79 *30:117 *41:155 0.000825453
80 *30:132 *41:155 0.000286821
81 *30:132 *41:161 0.00762754
82 *30:146 *41:161 0.000812756
83 *30:146 *41:185 0.000506493
84 *30:146 *41:187 0.000118603
85 *30:148 *41:187 0.0069648
86 *30:164 *351:s2 0
87 *30:182 *351:s2 0
88 *30:192 *41:215 0.000202969
89 *30:192 *41:255 0.00104999
90 *30:206 *41:255 0.000185801
91 *30:229 *41:363 0.00750555
92 *30:243 *41:363 0.00117068
93 *30:243 *41:386 0.0074636
94 *30:251 *41:386 0
95 *30:251 *41:406 0
*RES
1 io_in[1] *41:5 224.612 
2 *41:5 *41:7 8 
3 *41:7 *41:9 698.092 
4 *41:9 *41:13 47.2971 
5 *41:13 *41:21 14.0032 
6 *41:21 *41:23 97.2121 
7 *41:23 *41:27 7.93357 
8 *41:27 *343:s2 48.2136 
9 *41:27 *41:45 108.605 
10 *41:45 *41:65 46.7104 
11 *41:65 *342:s2 16.595 
12 *41:45 *41:75 106.492 
13 *41:75 *41:77 1.57429 
14 *41:77 *41:89 43.4507 
15 *41:89 *341:s2 32.087 
16 *41:77 *41:100 114.239 
17 *41:100 *41:116 49.8062 
18 *41:116 *340:s2 23 
19 *41:100 *41:123 98.0407 
20 *41:123 *41:127 11.7912 
21 *41:127 *339:s2 9.56325 
22 *41:127 *41:143 8.9576 
23 *41:143 *41:145 76.9121 
24 *41:145 *41:151 20.6928 
25 *41:151 *41:155 48.2893 
26 *41:155 *41:159 8.39947 
27 *41:159 *41:161 107.196 
28 *41:161 *352:s2 46.6164 
29 *41:161 *41:185 22.883 
30 *41:185 *41:187 100.858 
31 *41:187 *351:s2 45.1345 
32 *351:s2 *41:210 0.225556 
33 *41:187 *41:215 102.971 
34 *41:215 *41:225 21.5328 
35 *41:225 *350:s2 1.48107 
36 *41:225 *41:241 32.4961 
37 *41:241 *41:243 81.9354 
38 *41:243 *41:255 48.1663 
39 *41:255 *41:263 14.9496 
40 *41:263 *349:s2 10.9229 
41 *41:263 *41:285 8.28187 
42 *41:285 *41:287 72.9971 
43 *41:287 *41:295 47.5836 
44 *41:295 *348:s2 20.1786 
45 *348:s2 *41:315 18.6533 
46 *41:315 *41:319 44.7221 
47 *41:319 *41:321 57.3268 
48 *41:321 *347:s2 17.4495 
49 *347:s2 *41:359 42.1162 
50 *41:359 *41:361 8 
51 *41:361 *41:363 111.422 
52 *41:363 *346:s2 49.2232 
53 *41:363 *41:386 100.858 
54 *41:386 *345:s2 26.8885 
55 *41:386 *41:406 86.7721 
56 *41:406 *337:s2 36.2402 
57 *41:155 *338:s2 40.1847 
58 *41:13 *344:s2 36.775 
*END

*D_NET *52 0.479053
*CONN
*P io_in[2] I
*I *337:s3 I *D sky130_osu_ring_oscillator_mpr2aa_8_b0r1
*I *345:s3 I *D sky130_osu_ring_oscillator_mpr2at_8_b0r1
*I *346:s3 I *D sky130_osu_ring_oscillator_mpr2ca_8_b0r1
*I *347:s3 I *D sky130_osu_ring_oscillator_mpr2ct_8_b0r1
*I *348:s3 I *D sky130_osu_ring_oscillator_mpr2ea_8_b0r1
*I *349:s3 I *D sky130_osu_ring_oscillator_mpr2et_8_b0r1
*I *350:s3 I *D sky130_osu_ring_oscillator_mpr2xa_8_b0r1
*I *351:s3 I *D sky130_osu_ring_oscillator_mpr2ya_8_b0r1
*I *352:s3 I *D sky130_osu_ring_oscillator_mpr2aa_8_b0r2
*I *338:s3 I *D sky130_osu_ring_oscillator_mpr2at_8_b0r2
*I *339:s3 I *D sky130_osu_ring_oscillator_mpr2ca_8_b0r2
*I *340:s3 I *D sky130_osu_ring_oscillator_mpr2ct_8_b0r2
*I *341:s3 I *D sky130_osu_ring_oscillator_mpr2ea_8_b0r2
*I *342:s3 I *D sky130_osu_ring_oscillator_mpr2et_8_b0r2
*I *343:s3 I *D sky130_osu_ring_oscillator_mpr2xa_8_b0r2
*I *344:s3 I *D sky130_osu_ring_oscillator_mpr2ya_8_b0r2
*CAP
1 io_in[2] 0.0561648
2 *337:s3 0.00270428
3 *345:s3 0.00229262
4 *346:s3 0
5 *347:s3 0.00266657
6 *348:s3 0.00261506
7 *349:s3 7.00143e-05
8 *350:s3 0.00240084
9 *351:s3 0.00241893
10 *352:s3 0.000153944
11 *338:s3 0.00269112
12 *339:s3 0
13 *340:s3 0.00011739
14 *341:s3 0.00225678
15 *342:s3 0.000660214
16 *343:s3 0.000528808
17 *344:s3 0.00213964
18 *52:464 0.00490818
19 *52:462 0.00280465
20 *52:432 0.00329705
21 *52:426 0.00243169
22 *52:419 0.00305233
23 *52:403 0.00562028
24 *52:399 0.00274465
25 *52:397 0.00223193
26 *52:395 0.0022026
27 *52:372 0.00922264
28 *52:370 0.00494081
29 *52:340 0.00317517
30 *52:338 0.00315537
31 *52:328 0.00238038
32 *52:312 0.00613623
33 *52:304 0.00539746
34 *52:302 0.00567612
35 *52:277 0.00335
36 *52:275 0.00159537
37 *52:273 0.00240019
38 *52:243 0.0034793
39 *52:237 0.00408299
40 *52:227 0.00259276
41 *52:217 0.00660201
42 *52:211 0.00357186
43 *52:209 0.00323611
44 *52:187 0.00326834
45 *52:183 0.00226729
46 *52:181 0.00231361
47 *52:168 0.00305993
48 *52:150 0.00533065
49 *52:148 0.0016744
50 *52:146 0.0013834
51 *52:144 0.00210181
52 *52:137 0
53 *52:126 0.00236974
54 *52:118 0.00655861
55 *52:116 0.00370727
56 *52:91 0.00240343
57 *52:89 0.00473695
58 *52:87 0.00648896
59 *52:61 0.00491028
60 *52:57 0.00539953
61 *52:55 0.00526383
62 *52:37 0.00497342
63 *52:31 0.00559692
64 *52:29 0.00351466
65 *52:13 0.0162187
66 *52:11 0.0140791
67 *52:9 0.0213071
68 *52:7 0.0213071
69 *52:5 0.0561648
70 *338:s3 *61:211 0
71 *338:s3 *314:13 0
72 *341:s3 *341:s5 0.000532281
73 *341:s3 *61:105 0.000574363
74 *345:s3 *345:s4 0.00024615
75 *345:s3 *61:441 2.81132e-05
76 *345:s3 *62:361 0.000286768
77 *345:s3 *252:18 9.80701e-05
78 *347:s3 *61:404 0
79 *351:s3 *61:263 0.000110706
80 *52:31 *62:39 0.00244091
81 *52:31 *62:61 0.000157091
82 *52:31 *62:63 0
83 *52:89 *61:93 0
84 *52:116 *341:s5 0.000330576
85 *52:116 *62:89 0.000125523
86 *52:118 *61:121 0
87 *52:118 *62:114 0.00407971
88 *52:118 *62:140 0
89 *52:126 *340:s4 0.00178119
90 *52:126 *61:125 0.00041828
91 *52:144 *62:140 0
92 *52:146 *62:140 0.00395227
93 *52:150 *62:140 0.00106448
94 *52:150 *62:144 0.000354591
95 *52:150 *62:164 0.00099098
96 *52:183 *62:166 0.00646761
97 *52:183 *328:10 0.00404019
98 *52:211 *61:213 0.00754137
99 *52:211 *62:219 0
100 *52:227 *62:219 0
101 *52:237 *61:257 0.00246327
102 *52:237 *62:219 0
103 *52:243 *61:257 0.000109821
104 *52:273 *61:257 2.79482e-05
105 *52:273 *61:265 0.00141911
106 *52:273 *295:14 0.000795228
107 *52:275 *61:265 0.00183243
108 *52:275 *295:14 0.00290717
109 *52:275 *311:6 0
110 *52:304 *62:257 0
111 *52:304 *62:275 0.00104105
112 *52:304 *256:18 0
113 *52:312 *61:338 7.47186e-05
114 *52:312 *61:340 0.000172947
115 *52:328 *61:338 0.000296781
116 *52:328 *294:14 0
117 *52:338 *61:340 0.00708486
118 *52:338 *62:297 0
119 *52:370 *62:295 0.000406026
120 *52:370 *62:297 0
121 *52:370 *291:18 0
122 *52:372 *62:297 0
123 *52:372 *62:315 0
124 *52:372 *291:18 0
125 *52:395 *62:315 0
126 *52:395 *291:18 0
127 *52:399 *62:315 0
128 *52:399 *291:18 0
129 *52:403 *61:437 0.000117356
130 *52:403 *62:327 0
131 *52:403 *291:18 0.00062332
132 *52:419 *61:435 0.000319836
133 *52:426 *61:437 0.00779924
134 *52:426 *291:18 0.00317062
135 *52:432 *61:441 0
136 *52:462 *61:460 0.000753925
137 *52:462 *62:361 5.2952e-05
138 *52:462 *252:18 0.000781375
139 *52:464 *337:s4 2.91341e-05
140 *52:464 *61:460 0.00206247
141 *52:464 *252:18 0
142 *343:s2 *52:55 0.000544281
143 *41:13 *344:s3 0.001936
144 *41:13 *52:13 0.00871274
145 *41:45 *52:57 0.00827132
146 *41:65 *52:61 0.00300404
147 *41:75 *52:57 5.2952e-05
*RES
1 io_in[2] *52:5 197.564 
2 *52:5 *52:7 8 
3 *52:7 *52:9 493.145 
4 *52:9 *52:11 8 
5 *52:11 *52:13 56.8997 
6 *52:13 *344:s3 44.8513 
7 *52:13 *52:29 8 
8 *52:29 *52:31 104.379 
9 *52:31 *52:37 22.9253 
10 *52:37 *343:s3 26.7087 
11 *52:37 *52:55 27.8798 
12 *52:55 *52:57 105.788 
13 *52:57 *52:61 18.1883 
14 *52:61 *342:s3 36.2372 
15 *52:61 *52:87 13.9808 
16 *52:87 *52:89 107.901 
17 *52:89 *52:91 8 
18 *52:91 *341:s3 41.6505 
19 *52:91 *52:116 8.8288 
20 *52:116 *52:118 112.126 
21 *52:118 *52:126 35.2965 
22 *52:126 *340:s3 17.812 
23 *340:s3 *52:137 0.225556 
24 *52:118 *52:144 16.7786 
25 *52:144 *52:146 50.17 
26 *52:146 *52:148 0.621429 
27 *52:148 *52:150 50.8121 
28 *52:150 *52:168 49.9265 
29 *52:168 *339:s3 8 
30 *52:150 *52:181 23.6558 
31 *52:181 *52:183 98.745 
32 *52:183 *52:187 9.77333 
33 *52:187 *338:s3 44.7768 
34 *52:187 *52:209 8 
35 *52:209 *52:211 108.605 
36 *52:211 *52:217 16.9147 
37 *52:217 *52:227 35.4675 
38 *52:227 *352:s3 18.3195 
39 *52:217 *52:237 95.9279 
40 *52:237 *52:243 6.79429 
41 *52:243 *351:s3 46.5127 
42 *52:243 *52:273 36.1879 
43 *52:273 *52:275 74.5921 
44 *52:275 *52:277 8 
45 *52:277 *350:s3 39.5018 
46 *52:277 *52:302 11.2331 
47 *52:302 *52:304 112.831 
48 *52:304 *52:312 20.4605 
49 *52:312 *52:328 42.5355 
50 *52:328 *349:s3 9.48107 
51 *52:312 *52:338 105.084 
52 *52:338 *52:340 8 
53 *52:340 *348:s3 41.5862 
54 *52:340 *52:370 16.295 
55 *52:370 *52:372 100.526 
56 *52:372 *347:s3 46.8154 
57 *52:372 *52:395 49.8386 
58 *52:395 *52:397 0.621429 
59 *52:397 *52:399 50.17 
60 *52:399 *52:403 17.7521 
61 *52:403 *52:419 45.7289 
62 *52:419 *346:s3 8 
63 *52:403 *52:426 106.492 
64 *52:426 *52:432 17.4299 
65 *52:432 *345:s3 49.8465 
66 *52:432 *52:462 29.4143 
67 *52:462 *52:464 65.8714 
68 *52:464 *337:s3 49.4008 
*END

*D_NET *61 0.39254
*CONN
*P io_in[3] I
*I *339:s4 I *D sky130_osu_ring_oscillator_mpr2ca_8_b0r2
*I *337:s4 I *D sky130_osu_ring_oscillator_mpr2aa_8_b0r1
*I *345:s4 I *D sky130_osu_ring_oscillator_mpr2at_8_b0r1
*I *346:s4 I *D sky130_osu_ring_oscillator_mpr2ca_8_b0r1
*I *347:s4 I *D sky130_osu_ring_oscillator_mpr2ct_8_b0r1
*I *348:s4 I *D sky130_osu_ring_oscillator_mpr2ea_8_b0r1
*I *349:s4 I *D sky130_osu_ring_oscillator_mpr2et_8_b0r1
*I *350:s4 I *D sky130_osu_ring_oscillator_mpr2xa_8_b0r1
*I *351:s4 I *D sky130_osu_ring_oscillator_mpr2ya_8_b0r1
*I *352:s4 I *D sky130_osu_ring_oscillator_mpr2aa_8_b0r2
*I *338:s4 I *D sky130_osu_ring_oscillator_mpr2at_8_b0r2
*I *340:s4 I *D sky130_osu_ring_oscillator_mpr2ct_8_b0r2
*I *341:s4 I *D sky130_osu_ring_oscillator_mpr2ea_8_b0r2
*I *342:s4 I *D sky130_osu_ring_oscillator_mpr2et_8_b0r2
*I *343:s4 I *D sky130_osu_ring_oscillator_mpr2xa_8_b0r2
*I *344:s4 I *D sky130_osu_ring_oscillator_mpr2ya_8_b0r2
*CAP
1 io_in[3] 0.000922517
2 *339:s4 0
3 *337:s4 0.00121835
4 *345:s4 0.00123835
5 *346:s4 0.00162391
6 *347:s4 0.000130902
7 *348:s4 0.000297894
8 *349:s4 0.00235055
9 *350:s4 6.91572e-05
10 *351:s4 0.00136075
11 *352:s4 0.000288362
12 *338:s4 0.00120283
13 *340:s4 0.00142611
14 *341:s4 0.000121259
15 *342:s4 0.00121995
16 *343:s4 0.000177002
17 *344:s4 0.000492585
18 *61:460 0.00388996
19 *61:458 0.00267161
20 *61:441 0.00168318
21 *61:437 0.00263238
22 *61:435 0.00269554
23 *61:408 0.00654572
24 *61:406 0.00441383
25 *61:404 0.00209999
26 *61:374 0.00651503
27 *61:372 0.00482941
28 *61:346 0.00153306
29 *61:340 0.00329561
30 *61:338 0.00388823
31 *61:297 0.00517418
32 *61:295 0.00424546
33 *61:279 0.00128116
34 *61:265 0.0042603
35 *61:263 0.00338459
36 *61:257 0.00211083
37 *61:237 0.00327462
38 *61:235 0.00335084
39 *61:233 0.00335084
40 *61:217 0.00160727
41 *61:213 0.00455435
42 *61:211 0.00430785
43 *61:185 0.00147953
44 *61:171 0.00517948
45 *61:169 0.00395811
46 *61:161 0.00147154
47 *61:149 0.00445131
48 *61:147 0.0031075
49 *61:125 0.00168506
50 *61:121 0.00530014
51 *61:119 0.0052145
52 *61:105 0.00151257
53 *61:93 0.0062402
54 *61:91 0.00584847
55 *61:73 0.0040558
56 *61:71 0.00371081
57 *61:65 0.00492954
58 *61:63 0.00342825
59 *61:39 0.00497869
60 *61:37 0.00425513
61 *61:32 9.64066e-06
62 *61:13 0.0747199
63 *61:11 0.074237
64 *61:9 0.0110046
65 *61:7 0.0119272
66 *337:s4 *316:7 0
67 *342:s4 *342:s5 0
68 *342:s4 *320:8 4.4495e-05
69 *342:s4 *320:10 0
70 *348:s4 *310:8 0.000116992
71 *349:s4 *311:6 0
72 *351:s4 *313:16 0
73 *61:9 *62:9 0.00467286
74 *61:39 *305:10 0.000313779
75 *61:73 *62:71 0
76 *61:73 *256:18 0
77 *61:91 *62:85 0
78 *61:91 *256:18 0
79 *61:105 *341:s5 0.000405166
80 *61:121 *328:10 0
81 *61:121 *329:10 0
82 *61:121 *330:14 0
83 *61:149 *62:140 0.00249514
84 *61:149 *62:164 0
85 *61:185 *315:13 0
86 *61:211 *62:203 0.000336874
87 *61:217 *313:22 0.000247826
88 *61:257 *62:219 0
89 *61:257 *295:14 0.00146917
90 *61:297 *295:8 0.000208113
91 *61:338 *310:14 0
92 *61:346 *348:s5 0.000295339
93 *61:372 *310:12 1.7403e-05
94 *61:374 *309:12 0.000393287
95 *61:408 *62:315 0
96 *61:408 *62:327 0
97 *61:435 *62:327 0
98 *61:437 *62:327 0
99 *61:437 *62:331 0
100 *61:437 *62:333 0.00146646
101 *61:441 *62:361 3.50327e-05
102 *61:460 *62:361 0.000316756
103 *338:s3 *61:211 0
104 *341:s3 *61:105 0.000574363
105 *345:s3 *345:s4 0.00024615
106 *345:s3 *61:441 2.81132e-05
107 *347:s3 *61:404 0
108 *351:s3 *61:263 0.000110706
109 *52:89 *61:93 0
110 *52:118 *61:121 0
111 *52:126 *340:s4 0.00178119
112 *52:126 *61:125 0.00041828
113 *52:211 *61:213 0.00754137
114 *52:237 *61:257 0.00246327
115 *52:243 *61:257 0.000109821
116 *52:273 *61:257 2.79482e-05
117 *52:273 *61:265 0.00141911
118 *52:275 *61:265 0.00183243
119 *52:312 *61:338 7.47186e-05
120 *52:312 *61:340 0.000172947
121 *52:328 *61:338 0.000296781
122 *52:338 *61:340 0.00708486
123 *52:403 *61:437 0.000117356
124 *52:419 *61:435 0.000319836
125 *52:426 *61:437 0.00779924
126 *52:432 *61:441 0
127 *52:462 *61:460 0.000753925
128 *52:464 *337:s4 2.91341e-05
129 *52:464 *61:460 0.00206247
*RES
1 io_in[3] *61:7 11.0763 
2 *61:7 *61:9 276.929 
3 *61:9 *61:11 8 
4 *61:11 *61:13 254.479 
5 *61:13 *344:s4 44.6435 
6 *344:s4 *61:32 0.233036 
7 *61:13 *61:37 8 
8 *61:37 *61:39 98.2168 
9 *61:39 *343:s4 18.9046 
10 *61:39 *61:63 23.3304 
11 *61:63 *61:65 65.6436 
12 *61:65 *61:71 23.1829 
13 *61:71 *61:73 36.9439 
14 *61:73 *342:s4 42.1254 
15 *61:73 *61:91 32.0856 
16 *61:91 *61:93 107.196 
17 *61:93 *61:105 42.592 
18 *61:105 *341:s4 17.843 
19 *61:93 *61:119 3.95643 
20 *61:119 *61:121 114.944 
21 *61:121 *61:125 9.17227 
22 *61:125 *340:s4 42.7816 
23 *61:125 *61:147 8 
24 *61:147 *61:149 95.2236 
25 *61:149 *61:161 12.3839 
26 *61:161 *61:169 8.60387 
27 *61:169 *61:171 88.1807 
28 *61:171 *61:185 38.8792 