*SPEF "ieee 1481-1999"
*DESIGN "user_project_wrapper"
*DATE "11:11:11 Fri 11 11, 1111"
*VENDOR "OpenRCX"
*PROGRAM "Parallel Extraction"
*VERSION "1.0"
*DESIGN_FLOW "NAME_SCOPE LOCAL" "PIN_CAP NONE"
*DIVIDER /
*DELIMITER :
*BUS_DELIMITER []
*T_UNIT 1 NS
*C_UNIT 1 PF
*R_UNIT 1 OHM
*L_UNIT 1 HENRY

*NAME_MAP
*1 analog_io[0]
*2 analog_io[10]
*3 analog_io[11]
*4 analog_io[12]
*5 analog_io[13]
*6 analog_io[14]
*7 analog_io[15]
*8 analog_io[16]
*9 analog_io[17]
*10 analog_io[18]
*11 analog_io[19]
*12 analog_io[1]
*13 analog_io[20]
*14 analog_io[21]
*15 analog_io[22]
*16 analog_io[23]
*17 analog_io[24]
*18 analog_io[25]
*19 analog_io[26]
*20 analog_io[27]
*21 analog_io[28]
*22 analog_io[2]
*23 analog_io[3]
*24 analog_io[4]
*25 analog_io[5]
*26 analog_io[6]
*27 analog_io[7]
*28 analog_io[8]
*29 analog_io[9]
*30 io_in[0]
*31 io_in[10]
*32 io_in[11]
*33 io_in[12]
*34 io_in[13]
*35 io_in[14]
*36 io_in[15]
*37 io_in[16]
*38 io_in[17]
*39 io_in[18]
*40 io_in[19]
*41 io_in[1]
*42 io_in[20]
*43 io_in[21]
*44 io_in[22]
*45 io_in[23]
*46 io_in[24]
*47 io_in[25]
*48 io_in[26]
*49 io_in[27]
*50 io_in[28]
*51 io_in[29]
*52 io_in[2]
*53 io_in[30]
*54 io_in[31]
*55 io_in[32]
*56 io_in[33]
*57 io_in[34]
*58 io_in[35]
*59 io_in[36]
*60 io_in[37]
*61 io_in[3]
*62 io_in[4]
*63 io_in[5]
*64 io_in[6]
*65 io_in[7]
*66 io_in[8]
*67 io_in[9]
*68 io_oeb[0]
*69 io_oeb[10]
*70 io_oeb[11]
*71 io_oeb[12]
*72 io_oeb[13]
*73 io_oeb[14]
*74 io_oeb[15]
*75 io_oeb[16]
*76 io_oeb[17]
*77 io_oeb[18]
*78 io_oeb[19]
*79 io_oeb[1]
*80 io_oeb[20]
*81 io_oeb[21]
*82 io_oeb[22]
*83 io_oeb[23]
*84 io_oeb[24]
*85 io_oeb[25]
*86 io_oeb[26]
*87 io_oeb[27]
*88 io_oeb[28]
*89 io_oeb[29]
*90 io_oeb[2]
*91 io_oeb[30]
*92 io_oeb[31]
*93 io_oeb[32]
*94 io_oeb[33]
*95 io_oeb[34]
*96 io_oeb[35]
*97 io_oeb[36]
*98 io_oeb[37]
*99 io_oeb[3]
*100 io_oeb[4]
*101 io_oeb[5]
*102 io_oeb[6]
*103 io_oeb[7]
*104 io_oeb[8]
*105 io_oeb[9]
*106 io_out[0]
*107 io_out[10]
*108 io_out[11]
*109 io_out[12]
*110 io_out[13]
*111 io_out[14]
*112 io_out[15]
*113 io_out[16]
*114 io_out[17]
*115 io_out[18]
*116 io_out[19]
*117 io_out[1]
*118 io_out[20]
*119 io_out[21]
*120 io_out[22]
*121 io_out[23]
*122 io_out[24]
*123 io_out[25]
*124 io_out[26]
*125 io_out[27]
*126 io_out[28]
*127 io_out[29]
*128 io_out[2]
*129 io_out[30]
*130 io_out[31]
*131 io_out[32]
*132 io_out[33]
*133 io_out[34]
*134 io_out[35]
*135 io_out[36]
*136 io_out[37]
*137 io_out[3]
*138 io_out[4]
*139 io_out[5]
*140 io_out[6]
*141 io_out[7]
*142 io_out[8]
*143 io_out[9]
*146 wb_clk_i
*147 wb_rst_i
*148 wbs_ack_o
*149 wbs_adr_i[0]
*150 wbs_adr_i[10]
*151 wbs_adr_i[11]
*152 wbs_adr_i[12]
*153 wbs_adr_i[13]
*154 wbs_adr_i[14]
*155 wbs_adr_i[15]
*156 wbs_adr_i[16]
*157 wbs_adr_i[17]
*158 wbs_adr_i[18]
*159 wbs_adr_i[19]
*160 wbs_adr_i[1]
*161 wbs_adr_i[20]
*162 wbs_adr_i[21]
*163 wbs_adr_i[22]
*164 wbs_adr_i[23]
*165 wbs_adr_i[24]
*166 wbs_adr_i[25]
*167 wbs_adr_i[26]
*168 wbs_adr_i[27]
*169 wbs_adr_i[28]
*170 wbs_adr_i[29]
*171 wbs_adr_i[2]
*172 wbs_adr_i[30]
*173 wbs_adr_i[31]
*174 wbs_adr_i[3]
*175 wbs_adr_i[4]
*176 wbs_adr_i[5]
*177 wbs_adr_i[6]
*178 wbs_adr_i[7]
*179 wbs_adr_i[8]
*180 wbs_adr_i[9]
*181 wbs_cyc_i
*182 wbs_dat_i[0]
*183 wbs_dat_i[10]
*184 wbs_dat_i[11]
*185 wbs_dat_i[12]
*186 wbs_dat_i[13]
*187 wbs_dat_i[14]
*188 wbs_dat_i[15]
*189 wbs_dat_i[16]
*190 wbs_dat_i[17]
*191 wbs_dat_i[18]
*192 wbs_dat_i[19]
*193 wbs_dat_i[1]
*194 wbs_dat_i[20]
*195 wbs_dat_i[21]
*196 wbs_dat_i[22]
*197 wbs_dat_i[23]
*198 wbs_dat_i[24]
*199 wbs_dat_i[25]
*200 wbs_dat_i[26]
*201 wbs_dat_i[27]
*202 wbs_dat_i[28]
*203 wbs_dat_i[29]
*204 wbs_dat_i[2]
*205 wbs_dat_i[30]
*206 wbs_dat_i[31]
*207 wbs_dat_i[3]
*208 wbs_dat_i[4]
*209 wbs_dat_i[5]
*210 wbs_dat_i[6]
*211 wbs_dat_i[7]
*212 wbs_dat_i[8]
*213 wbs_dat_i[9]
*214 wbs_dat_o[0]
*215 wbs_dat_o[10]
*216 wbs_dat_o[11]
*217 wbs_dat_o[12]
*218 wbs_dat_o[13]
*219 wbs_dat_o[14]
*220 wbs_dat_o[15]
*221 wbs_dat_o[16]
*222 wbs_dat_o[17]
*223 wbs_dat_o[18]
*224 wbs_dat_o[19]
*225 wbs_dat_o[1]
*226 wbs_dat_o[20]
*227 wbs_dat_o[21]
*228 wbs_dat_o[22]
*229 wbs_dat_o[23]
*230 wbs_dat_o[24]
*231 wbs_dat_o[25]
*232 wbs_dat_o[26]
*233 wbs_dat_o[27]
*234 wbs_dat_o[28]
*235 wbs_dat_o[29]
*236 wbs_dat_o[2]
*237 wbs_dat_o[30]
*238 wbs_dat_o[31]
*239 wbs_dat_o[3]
*240 wbs_dat_o[4]
*241 wbs_dat_o[5]
*242 wbs_dat_o[6]
*243 wbs_dat_o[7]
*244 wbs_dat_o[8]
*245 wbs_dat_o[9]
*246 wbs_sel_i[0]
*247 wbs_sel_i[1]
*248 wbs_sel_i[2]
*249 wbs_sel_i[3]
*250 wbs_stb_i
*251 wbs_we_i
*252 x1\[0\]
*253 x1\[10\]
*254 x1\[11\]
*255 x1\[12\]
*256 x1\[13\]
*257 x1\[14\]
*258 x1\[15\]
*259 x1\[1\]
*260 x1\[2\]
*261 x1\[3\]
*262 x1\[4\]
*263 x1\[5\]
*264 x1\[6\]
*265 x1\[7\]
*266 x1\[8\]
*267 x1\[9\]
*268 x2\[0\]
*269 x2\[10\]
*270 x2\[11\]
*271 x2\[12\]
*272 x2\[13\]
*273 x2\[14\]
*274 x2\[15\]
*275 x2\[1\]
*276 x2\[2\]
*277 x2\[3\]
*278 x2\[4\]
*279 x2\[5\]
*280 x2\[6\]
*281 x2\[7\]
*282 x2\[8\]
*283 x2\[9\]
*284 x3\[0\]
*285 x3\[10\]
*286 x3\[11\]
*287 x3\[12\]
*288 x3\[13\]
*289 x3\[14\]
*290 x3\[15\]
*291 x3\[1\]
*292 x3\[2\]
*293 x3\[3\]
*294 x3\[4\]
*295 x3\[5\]
*296 x3\[6\]
*297 x3\[7\]
*298 x3\[8\]
*299 x3\[9\]
*300 x4\[0\]
*301 x4\[10\]
*302 x4\[11\]
*303 x4\[12\]
*304 x4\[13\]
*305 x4\[14\]
*306 x4\[15\]
*307 x4\[1\]
*308 x4\[2\]
*309 x4\[3\]
*310 x4\[4\]
*311 x4\[5\]
*312 x4\[6\]
*313 x4\[7\]
*314 x4\[8\]
*315 x4\[9\]
*316 x5\[0\]
*317 x5\[10\]
*318 x5\[11\]
*319 x5\[12\]
*320 x5\[13\]
*321 x5\[14\]
*322 x5\[15\]
*323 x5\[1\]
*324 x5\[2\]
*325 x5\[3\]
*326 x5\[4\]
*327 x5\[5\]
*328 x5\[6\]
*329 x5\[7\]
*330 x5\[8\]
*331 x5\[9\]
*332 mprj1
*333 mprj2
*334 mprj3
*335 mprj4
*336 mprj5
*337 ro1
*338 ro10
*339 ro11
*340 ro12
*341 ro13
*342 ro14
*343 ro15
*344 ro16
*345 ro2
*346 ro3
*347 ro4
*348 ro5
*349 ro6
*350 ro7
*351 ro8
*352 ro9

*PORTS
analog_io[0] I
analog_io[10] I
analog_io[11] I
analog_io[12] I
analog_io[13] I
analog_io[14] I
analog_io[15] I
analog_io[16] I
analog_io[17] I
analog_io[18] I
analog_io[19] I
analog_io[1] I
analog_io[20] I
analog_io[21] I
analog_io[22] I
analog_io[23] I
analog_io[24] I
analog_io[25] I
analog_io[26] I
analog_io[27] I
analog_io[28] I
analog_io[2] I
analog_io[3] I
analog_io[4] I
analog_io[5] I
analog_io[6] I
analog_io[7] I
analog_io[8] I
analog_io[9] I
io_in[0] I
io_in[10] I
io_in[11] I
io_in[12] I
io_in[13] I
io_in[14] I
io_in[15] I
io_in[16] I
io_in[17] I
io_in[18] I
io_in[19] I
io_in[1] I
io_in[20] I
io_in[21] I
io_in[22] I
io_in[23] I
io_in[24] I
io_in[25] I
io_in[26] I
io_in[27] I
io_in[28] I
io_in[29] I
io_in[2] I
io_in[30] I
io_in[31] I
io_in[32] I
io_in[33] I
io_in[34] I
io_in[35] I
io_in[36] I
io_in[37] I
io_in[3] I
io_in[4] I
io_in[5] I
io_in[6] I
io_in[7] I
io_in[8] I
io_in[9] I
io_oeb[0] O
io_oeb[10] O
io_oeb[11] O
io_oeb[12] O
io_oeb[13] O
io_oeb[14] O
io_oeb[15] O
io_oeb[16] O
io_oeb[17] O
io_oeb[18] O
io_oeb[19] O
io_oeb[1] O
io_oeb[20] O
io_oeb[21] O
io_oeb[22] O
io_oeb[23] O
io_oeb[24] O
io_oeb[25] O
io_oeb[26] O
io_oeb[27] O
io_oeb[28] O
io_oeb[29] O
io_oeb[2] O
io_oeb[30] O
io_oeb[31] O
io_oeb[32] O
io_oeb[33] O
io_oeb[34] O
io_oeb[35] O
io_oeb[36] O
io_oeb[37] O
io_oeb[3] O
io_oeb[4] O
io_oeb[5] O
io_oeb[6] O
io_oeb[7] O
io_oeb[8] O
io_oeb[9] O
io_out[0] O
io_out[10] O
io_out[11] O
io_out[12] O
io_out[13] O
io_out[14] O
io_out[15] O
io_out[16] O
io_out[17] O
io_out[18] O
io_out[19] O
io_out[1] O
io_out[20] O
io_out[21] O
io_out[22] O
io_out[23] O
io_out[24] O
io_out[25] O
io_out[26] O
io_out[27] O
io_out[28] O
io_out[29] O
io_out[2] O
io_out[30] O
io_out[31] O
io_out[32] O
io_out[33] O
io_out[34] O
io_out[35] O
io_out[36] O
io_out[37] O
io_out[3] O
io_out[4] O
io_out[5] O
io_out[6] O
io_out[7] O
io_out[8] O
io_out[9] O
wb_clk_i I
wb_rst_i I
wbs_ack_o O
wbs_adr_i[0] I
wbs_adr_i[10] I
wbs_adr_i[11] I
wbs_adr_i[12] I
wbs_adr_i[13] I
wbs_adr_i[14] I
wbs_adr_i[15] I
wbs_adr_i[16] I
wbs_adr_i[17] I
wbs_adr_i[18] I
wbs_adr_i[19] I
wbs_adr_i[1] I
wbs_adr_i[20] I
wbs_adr_i[21] I
wbs_adr_i[22] I
wbs_adr_i[23] I
wbs_adr_i[24] I
wbs_adr_i[25] I
wbs_adr_i[26] I
wbs_adr_i[27] I
wbs_adr_i[28] I
wbs_adr_i[29] I
wbs_adr_i[2] I
wbs_adr_i[30] I
wbs_adr_i[31] I
wbs_adr_i[3] I
wbs_adr_i[4] I
wbs_adr_i[5] I
wbs_adr_i[6] I
wbs_adr_i[7] I
wbs_adr_i[8] I
wbs_adr_i[9] I
wbs_cyc_i I
wbs_dat_i[0] I
wbs_dat_i[10] I
wbs_dat_i[11] I
wbs_dat_i[12] I
wbs_dat_i[13] I
wbs_dat_i[14] I
wbs_dat_i[15] I
wbs_dat_i[16] I
wbs_dat_i[17] I
wbs_dat_i[18] I
wbs_dat_i[19] I
wbs_dat_i[1] I
wbs_dat_i[20] I
wbs_dat_i[21] I
wbs_dat_i[22] I
wbs_dat_i[23] I
wbs_dat_i[24] I
wbs_dat_i[25] I
wbs_dat_i[26] I
wbs_dat_i[27] I
wbs_dat_i[28] I
wbs_dat_i[29] I
wbs_dat_i[2] I
wbs_dat_i[30] I
wbs_dat_i[31] I
wbs_dat_i[3] I
wbs_dat_i[4] I
wbs_dat_i[5] I
wbs_dat_i[6] I
wbs_dat_i[7] I
wbs_dat_i[8] I
wbs_dat_i[9] I
wbs_dat_o[0] O
wbs_dat_o[10] O
wbs_dat_o[11] O
wbs_dat_o[12] O
wbs_dat_o[13] O
wbs_dat_o[14] O
wbs_dat_o[15] O
wbs_dat_o[16] O
wbs_dat_o[17] O
wbs_dat_o[18] O
wbs_dat_o[19] O
wbs_dat_o[1] O
wbs_dat_o[20] O
wbs_dat_o[21] O
wbs_dat_o[22] O
wbs_dat_o[23] O
wbs_dat_o[24] O
wbs_dat_o[25] O
wbs_dat_o[26] O
wbs_dat_o[27] O
wbs_dat_o[28] O
wbs_dat_o[29] O
wbs_dat_o[2] O
wbs_dat_o[30] O
wbs_dat_o[31] O
wbs_dat_o[3] O
wbs_dat_o[4] O
wbs_dat_o[5] O
wbs_dat_o[6] O
wbs_dat_o[7] O
wbs_dat_o[8] O
wbs_dat_o[9] O
wbs_sel_i[0] I
wbs_sel_i[1] I
wbs_sel_i[2] I
wbs_sel_i[3] I
wbs_stb_i I
wbs_we_i I

*D_NET *30 0.446915
*CONN
*P io_in[0] I
*I *344:s1 I *D sky130_osu_ring_oscillator_mpr2ya_8_b0r2
*I *341:s1 I *D sky130_osu_ring_oscillator_mpr2ea_8_b0r2
*I *347:s1 I *D sky130_osu_ring_oscillator_mpr2ct_8_b0r1
*I *345:s1 I *D sky130_osu_ring_oscillator_mpr2at_8_b0r1
*I *337:s1 I *D sky130_osu_ring_oscillator_mpr2aa_8_b0r1
*I *346:s1 I *D sky130_osu_ring_oscillator_mpr2ca_8_b0r1
*I *348:s1 I *D sky130_osu_ring_oscillator_mpr2ea_8_b0r1
*I *349:s1 I *D sky130_osu_ring_oscillator_mpr2et_8_b0r1
*I *350:s1 I *D sky130_osu_ring_oscillator_mpr2xa_8_b0r1
*I *351:s1 I *D sky130_osu_ring_oscillator_mpr2ya_8_b0r1
*I *352:s1 I *D sky130_osu_ring_oscillator_mpr2aa_8_b0r2
*I *338:s1 I *D sky130_osu_ring_oscillator_mpr2at_8_b0r2
*I *339:s1 I *D sky130_osu_ring_oscillator_mpr2ca_8_b0r2
*I *340:s1 I *D sky130_osu_ring_oscillator_mpr2ct_8_b0r2
*I *342:s1 I *D sky130_osu_ring_oscillator_mpr2et_8_b0r2
*I *343:s1 I *D sky130_osu_ring_oscillator_mpr2xa_8_b0r2
*CAP
1 io_in[0] 0.0739818
2 *344:s1 0
3 *341:s1 0
4 *347:s1 0.000160322
5 *345:s1 0.000537306
6 *337:s1 0.000766659
7 *346:s1 0.000196057
8 *348:s1 0.000422886
9 *349:s1 0
10 *350:s1 0
11 *351:s1 0.000379837
12 *352:s1 0.000705953
13 *338:s1 0.00197955
14 *339:s1 0.000250207
15 *340:s1 0.000151386
16 *342:s1 0
17 *343:s1 0.000344448
18 *30:312 0.000692338
19 *30:295 0.000485013
20 *30:246 0.003555
21 *30:244 0.00287963
22 *30:240 0.000628589
23 *30:238 0.00493757
24 *30:224 0.00995556
25 *30:222 0.00968842
26 *30:207 0.00773257
27 *30:205 0.00334463
28 *30:196 0.000564274
29 *30:188 0.00331168
30 *30:186 0.00205998
31 *30:180 0.00116732
32 *30:173 0.000450893
33 *30:165 0.00266935
34 *30:161 0.00317782
35 *30:150 0.00582989
36 *30:138 0.00718841
37 *30:136 0.00367027
38 *30:132 0.000872939
39 *30:114 0.00447894
40 *30:112 0.00280746
41 *30:99 0.00189018
42 *30:93 0.00254972
43 *30:87 0.0042267
44 *30:67 0.00442156
45 *30:61 0.00454355
46 *30:59 0.00410647
47 *30:57 0.00272824
48 *30:55 0.00443652
49 *30:46 0.000564119
50 *30:42 0.00335143
51 *30:40 0.00176526
52 *30:23 0.00401013
53 *30:21 0.00351705
54 *30:13 0.00372713
55 *30:9 0.0422693
56 *30:7 0.0398032
57 *30:5 0.0739818
58 *337:s1 *337:start 0
59 *338:s1 *267:11 0
60 *346:s1 *346:start 3.86204e-06
61 *351:s1 *351:start 1.19371e-05
62 *30:9 *62:33 0.00133262
63 *30:13 *41:13 0.00520441
64 *30:13 *41:21 0.00186651
65 *30:21 *41:21 0.000508823
66 *30:23 *41:23 0.00384655
67 *30:40 *41:23 0.000454588
68 *30:40 *41:53 0.000287244
69 *30:40 *52:73 2.19502e-05
70 *30:42 *41:53 0.00720019
71 *30:42 *52:75 0.00720496
72 *30:46 *342:start 9.65021e-05
73 *30:55 *41:53 0.000299819
74 *30:55 *52:75 0.0007884
75 *30:61 *41:102 0.0077902
76 *30:99 *41:135 0.00422817
77 *30:136 *338:start 5.3304e-05
78 *30:138 *41:165 0.000924143
79 *30:138 *41:189 0.0073024
80 *30:150 *41:189 0.00103363
81 *30:150 *41:217 0.00778941
82 *30:161 *41:217 0.000543512
83 *30:161 *41:245 0.0049821
84 *30:165 *41:245 0.00148833
85 *30:173 *350:start 1.24362e-05
86 *30:180 *41:245 0.00027989
87 *30:180 *41:270 0.000491859
88 *30:180 *41:272 0.00153367
89 *30:188 *41:272 0.00564386
90 *30:196 *349:start 5.56356e-05
91 *30:205 *41:272 0.000871942
92 *30:205 *41:299 0.00108793
93 *30:207 *41:299 0.00135465
94 *30:207 *41:305 0.00265629
95 *30:222 *41:305 0.000285629
96 *30:244 *345:start 4.63961e-05
97 *30:246 *41:389 0.00341372
*RES
1 io_in[0] *30:5 254.236 
2 *30:5 *30:7 8 
3 *30:7 *30:9 903.039 
4 *30:9 *30:13 21.0219 
5 *30:13 *30:21 10.184 
6 *30:21 *30:23 96.1039 
7 *30:23 *343:s1 45.5814 
8 *30:23 *30:40 34.594 
9 *30:40 *30:42 91.5261 
10 *30:42 *30:46 27.4286 
11 *30:46 *342:s1 23 
12 *30:42 *30:55 45.2504 
13 *30:55 *30:57 62.8886 
14 *30:57 *30:59 0.621429 
15 *30:59 *30:61 112.126 
16 *30:61 *30:67 18.8896 
17 *30:67 *340:s1 18.1693 
18 *30:67 *30:87 76.2079 
19 *30:87 *30:93 18.8037 
20 *30:93 *30:99 46.1201 
21 *30:99 *339:s1 9.0024 
22 *30:99 *30:112 8 
23 *30:112 *30:114 64.3179 
24 *30:114 *338:s1 39.1966 
25 *338:s1 *30:132 21.6959 
26 *30:132 *30:136 27.0557 
27 *30:136 *30:138 105.788 
28 *30:138 *352:s1 30.2146 
29 *30:138 *30:150 113.535 
30 *30:150 *351:s1 46.0682 
31 *30:150 *30:161 71.0189 
32 *30:161 *30:165 36.9439 
33 *30:165 *30:173 39.3732 
34 *30:173 *350:s1 15 
35 *30:165 *30:180 38.1764 
36 *30:180 *30:186 31.2014 
37 *30:186 *30:188 71.63 
38 *30:188 *30:196 27.7962 
39 *30:196 *349:s1 23 
40 *30:188 *30:205 26.0068 
41 *30:205 *30:207 84.1932 
42 *30:207 *348:s1 47.3939 
43 *30:207 *30:222 107.372 
44 *30:222 *30:224 108.429 
45 *30:224 *346:s1 19.3034 
46 *30:224 *30:238 111.07 
47 *30:238 *30:240 15 
48 *30:240 *30:244 17.0507 
49 *30:244 *30:246 90.2936 
50 *30:246 *337:s1 30.7946 
51 *30:240 *345:s1 34.8848 
52 *30:222 *347:s1 18.7648 
53 *30:59 *30:295 40.3312 
54 *30:295 *341:s1 15 
55 *30:13 *30:312 36.0549 
56 *30:312 *344:s1 15 
*END

*D_NET *41 0.468582
*CONN
*P io_in[1] I
*I *344:s2 I *D sky130_osu_ring_oscillator_mpr2ya_8_b0r2
*I *342:s2 I *D sky130_osu_ring_oscillator_mpr2et_8_b0r2
*I *346:s2 I *D sky130_osu_ring_oscillator_mpr2ca_8_b0r1
*I *345:s2 I *D sky130_osu_ring_oscillator_mpr2at_8_b0r1
*I *337:s2 I *D sky130_osu_ring_oscillator_mpr2aa_8_b0r1
*I *347:s2 I *D sky130_osu_ring_oscillator_mpr2ct_8_b0r1
*I *348:s2 I *D sky130_osu_ring_oscillator_mpr2ea_8_b0r1
*I *349:s2 I *D sky130_osu_ring_oscillator_mpr2et_8_b0r1
*I *350:s2 I *D sky130_osu_ring_oscillator_mpr2xa_8_b0r1
*I *351:s2 I *D sky130_osu_ring_oscillator_mpr2ya_8_b0r1
*I *352:s2 I *D sky130_osu_ring_oscillator_mpr2aa_8_b0r2
*I *338:s2 I *D sky130_osu_ring_oscillator_mpr2at_8_b0r2
*I *339:s2 I *D sky130_osu_ring_oscillator_mpr2ca_8_b0r2
*I *340:s2 I *D sky130_osu_ring_oscillator_mpr2ct_8_b0r2
*I *341:s2 I *D sky130_osu_ring_oscillator_mpr2ea_8_b0r2
*I *343:s2 I *D sky130_osu_ring_oscillator_mpr2xa_8_b0r2
*CAP
1 io_in[1] 0.0654447
2 *344:s2 0.000694403
3 *342:s2 0.000420856
4 *346:s2 0.000455929
5 *345:s2 0.00233442
6 *337:s2 0.00195703
7 *347:s2 0.000773857
8 *348:s2 0.00035022
9 *349:s2 9.05305e-05
10 *350:s2 0.0014447
11 *351:s2 0.0020175
12 *352:s2 0.00212558
13 *338:s2 0.00238957
14 *339:s2 0.000457531
15 *340:s2 0
16 *341:s2 0.000309102
17 *343:s2 0.00200913
18 *41:389 0.00485601
19 *41:387 0.00289898
20 *41:385 0.00266629
21 *41:381 0.00590683
22 *41:379 0.00750517
23 *41:373 0.00653604
24 *41:371 0.00455159
25 *41:339 0.00191714
26 *41:329 0.00426292
27 *41:309 0.00474449
28 *41:305 0.00283885
29 *41:299 0.00311197
30 *41:290 0.00247975
31 *41:272 0.00720731
32 *41:270 0.00334277
33 *41:245 0.00512863
34 *41:240 0
35 *41:217 0.00838802
36 *41:189 0.00843205
37 *41:165 0.0081466
38 *41:163 0.00385264
39 *41:157 0.00351863
40 *41:137 0.00273479
41 *41:135 0.00207451
42 *41:125 0.00492278
43 *41:118 0.00190378
44 *41:102 0.00819328
45 *41:100 0.00561118
46 *41:75 0.00232122
47 *41:65 0.00450779
48 *41:63 0.00434997
49 *41:61 0.00227284
50 *41:53 0.00468823
51 *41:23 0.00795196
52 *41:21 0.00433763
53 *41:13 0.00936667
54 *41:9 0.0376029
55 *41:7 0.0301617
56 *41:5 0.0654447
57 *343:s2 *52:73 0.000536221
58 *347:s2 *277:10 0
59 *41:13 *344:s3 0.00185138
60 *41:13 *52:13 0.00866756
61 *41:53 *52:75 0.000143752
62 *41:61 *52:79 0
63 *41:65 *271:10 0
64 *41:290 *278:7 0
65 *41:379 *260:11 0
66 *30:13 *41:13 0.00520441
67 *30:13 *41:21 0.00186651
68 *30:21 *41:21 0.000508823
69 *30:23 *41:23 0.00384655
70 *30:40 *41:23 0.000454588
71 *30:40 *41:53 0.000287244
72 *30:42 *41:53 0.00720019
73 *30:55 *41:53 0.000299819
74 *30:61 *41:102 0.0077902
75 *30:99 *41:135 0.00422817
76 *30:138 *41:165 0.000924143
77 *30:138 *41:189 0.0073024
78 *30:150 *41:189 0.00103363
79 *30:150 *41:217 0.00778941
80 *30:161 *41:217 0.000543512
81 *30:161 *41:245 0.0049821
82 *30:165 *41:245 0.00148833
83 *30:180 *41:245 0.00027989
84 *30:180 *41:270 0.000491859
85 *30:180 *41:272 0.00153367
86 *30:188 *41:272 0.00564386
87 *30:205 *41:272 0.000871942
88 *30:205 *41:299 0.00108793
89 *30:207 *41:299 0.00135465
90 *30:207 *41:305 0.00265629
91 *30:222 *41:305 0.000285629
92 *30:246 *41:389 0.00341372
*RES
1 io_in[1] *41:5 224.612 
2 *41:5 *41:7 8 
3 *41:7 *41:9 698.092 
4 *41:9 *41:13 47.2971 
5 *41:13 *41:21 13.8315 
6 *41:21 *41:23 104.379 
7 *41:23 *343:s2 49.0503 
8 *41:23 *41:53 102.266 
9 *41:53 *41:61 14.2608 
10 *41:61 *41:63 8 
11 *41:63 *41:65 100.154 
12 *41:65 *341:s2 3.92018 
13 *341:s2 *41:75 3.6975 
14 *41:75 *41:100 48.3089 
15 *41:100 *41:102 111.422 
16 *41:102 *41:118 49.8062 
17 *41:118 *340:s2 23 
18 *41:102 *41:125 64.2764 
19 *41:125 *41:135 49.9752 
20 *41:135 *41:137 8 
21 *41:137 *339:s2 21.3734 
22 *41:137 *41:157 52.2621 
23 *41:157 *41:163 20.0059 
24 *41:163 *41:165 62.1221 
25 *41:165 *338:s2 48.1847 
26 *41:165 *41:189 107.196 
27 *41:189 *352:s2 47.268 
28 *41:189 *41:217 107.196 
29 *41:217 *351:s2 45.1345 
30 *351:s2 *41:240 0.225556 
31 *41:217 *41:245 107.196 
32 *41:245 *350:s2 36.6836 
33 *41:245 *41:270 43.5161 
34 *41:270 *41:272 103.147 
35 *41:272 *41:290 48.0468 
36 *41:290 *349:s2 16.9886 
37 *41:272 *41:299 63.8414 
38 *41:299 *41:305 46.9636 
39 *41:305 *41:309 13.5515 
40 *41:309 *348:s2 20.7219 
41 *41:309 *41:329 62.4743 
42 *41:329 *41:339 47.2995 
43 *41:339 *347:s2 23.0112 
44 *347:s2 *41:371 19.5217 
45 *41:371 *41:373 95.2236 
46 *41:373 *41:379 22.5819 
47 *41:379 *41:381 129.029 
48 *41:381 *41:385 9.17227 
49 *41:385 *41:387 8 
50 *41:387 *41:389 92.4064 
51 *41:389 *337:s2 25.6198 
52 *41:385 *345:s2 40.3878 
53 *41:373 *346:s2 24.8962 
54 *41:61 *342:s2 12.6967 
55 *41:13 *344:s2 36.699 
*END

*D_NET *52 0.475434
*CONN
*P io_in[2] I
*I *346:s3 I *D sky130_osu_ring_oscillator_mpr2ca_8_b0r1
*I *337:s3 I *D sky130_osu_ring_oscillator_mpr2aa_8_b0r1
*I *345:s3 I *D sky130_osu_ring_oscillator_mpr2at_8_b0r1
*I *347:s3 I *D sky130_osu_ring_oscillator_mpr2ct_8_b0r1
*I *348:s3 I *D sky130_osu_ring_oscillator_mpr2ea_8_b0r1
*I *349:s3 I *D sky130_osu_ring_oscillator_mpr2et_8_b0r1
*I *350:s3 I *D sky130_osu_ring_oscillator_mpr2xa_8_b0r1
*I *351:s3 I *D sky130_osu_ring_oscillator_mpr2ya_8_b0r1
*I *352:s3 I *D sky130_osu_ring_oscillator_mpr2aa_8_b0r2
*I *338:s3 I *D sky130_osu_ring_oscillator_mpr2at_8_b0r2
*I *339:s3 I *D sky130_osu_ring_oscillator_mpr2ca_8_b0r2
*I *340:s3 I *D sky130_osu_ring_oscillator_mpr2ct_8_b0r2
*I *341:s3 I *D sky130_osu_ring_oscillator_mpr2ea_8_b0r2
*I *342:s3 I *D sky130_osu_ring_oscillator_mpr2et_8_b0r2
*I *343:s3 I *D sky130_osu_ring_oscillator_mpr2xa_8_b0r2
*I *344:s3 I *D sky130_osu_ring_oscillator_mpr2ya_8_b0r2
*CAP
1 io_in[2] 0.0561648
2 *346:s3 0.000692246
3 *337:s3 0.00261908
4 *345:s3 0.00227495
5 *347:s3 0.000758422
6 *348:s3 0.00264747
7 *349:s3 7.00143e-05
8 *350:s3 0.00232816
9 *351:s3 0.00190804
10 *352:s3 0.000103364
11 *338:s3 0.00256517
12 *339:s3 0
13 *340:s3 0.000117162
14 *341:s3 0.0026311
15 *342:s3 0.000629364
16 *343:s3 0.00067504
17 *344:s3 0.00228035
18 *52:475 0.00565169
19 *52:473 0.00303261
20 *52:449 0.0034215
21 *52:437 0.00398696
22 *52:435 0.00540605
23 *52:425 0.00378478
24 *52:421 0.00389214
25 *52:419 0.00336525
26 *52:398 0.00269811
27 *52:394 0.00556786
28 *52:392 0.00413969
29 *52:362 0.00315897
30 *52:360 0.00318205
31 *52:350 0.00211569
32 *52:334 0.00580201
33 *52:326 0.00503957
34 *52:324 0.00540251
35 *52:298 0.00326539
36 *52:296 0.00481508
37 *52:268 0.0107864
38 *52:258 0.0026351
39 *52:240 0.00693078
40 *52:234 0.00355086
41 *52:232 0.00321511
42 *52:208 0.00296504
43 *52:204 0.00289006
44 *52:202 0.00356283
45 *52:185 0.00227607
46 *52:169 0.00708586
47 *52:164 0
48 *52:155 0.00229126
49 *52:145 0.00636287
50 *52:141 0.0039944
51 *52:139 0.0038113
52 *52:113 0.00289961
53 *52:111 0.0048017
54 *52:109 0.00646927
55 *52:79 0.00537381
56 *52:75 0.00596831
57 *52:73 0.00524566
58 *52:45 0.00519261
59 *52:39 0.00534282
60 *52:37 0.00317947
61 *52:13 0.0163055
62 *52:11 0.0140252
63 *52:9 0.0213111
64 *52:7 0.0213111
65 *52:5 0.0561648
66 *338:s3 *314:9 0
67 *345:s3 *300:15 0.000338957
68 *346:s3 *292:11 0
69 *348:s3 *348:s4 0
70 *348:s3 *61:359 0
71 *350:s3 *61:310 0
72 *350:s3 *62:263 0
73 *351:s3 *351:s4 0
74 *351:s3 *61:254 0.000461302
75 *351:s3 *296:10 0.000903824
76 *52:39 *62:33 0.00689123
77 *52:39 *62:51 0.000678524
78 *52:39 *62:53 0
79 *52:45 *61:59 0
80 *52:109 *61:107 0.000398839
81 *52:111 *61:109 0
82 *52:111 *62:103 0
83 *52:141 *61:125 0
84 *52:141 *62:103 0
85 *52:141 *62:105 0.00207351
86 *52:141 *62:115 0.00061354
87 *52:141 *62:127 0.000576841
88 *52:145 *61:153 4.77164e-06
89 *52:145 *62:127 0
90 *52:155 *340:s4 0.00182504
91 *52:169 *61:153 0.00264463
92 *52:169 *61:157 0
93 *52:169 *62:155 0.000340433
94 *52:169 *317:17 1.09783e-05
95 *52:185 *339:s4 0.00215634
96 *52:202 *335:data_in[9] 0.000360946
97 *52:204 *61:192 0.000552924
98 *52:204 *61:210 0.00120845
99 *52:204 *62:157 0.00640363
100 *52:204 *271:18 0.000692567
101 *52:204 *312:21 0
102 *52:208 *61:210 0
103 *52:208 *311:18 7.05456e-05
104 *52:208 *312:25 0.000246311
105 *52:208 *314:9 0
106 *52:234 *61:212 0.00764345
107 *52:234 *62:202 0
108 *52:234 *311:14 0
109 *52:258 *62:202 0
110 *52:268 *351:s5 0
111 *52:268 *61:254 0.00262387
112 *52:268 *62:202 0
113 *52:268 *62:212 0
114 *52:268 *62:234 0
115 *52:296 *350:s5 0
116 *52:296 *62:234 0
117 *52:296 *62:265 0
118 *52:326 *62:287 0.000417875
119 *52:326 *276:13 0.000941231
120 *52:326 *277:18 0.000888396
121 *52:326 *324:10 0
122 *52:334 *61:355 0.000169194
123 *52:334 *278:11 0
124 *52:334 *291:25 4.63681e-05
125 *52:334 *294:11 0.000312873
126 *52:350 *294:7 0
127 *52:350 *294:11 0.00173834
128 *52:360 *61:355 0.00395215
129 *52:360 *326:17 4.81862e-05
130 *52:392 *62:307 0.000467775
131 *52:392 *62:309 0
132 *52:392 *291:21 0
133 *52:394 *61:385 0.00348188
134 *52:394 *62:309 0
135 *52:394 *62:327 0.000239832
136 *52:394 *291:21 0
137 *52:394 *325:15 5.10626e-06
138 *52:398 *347:s4 0
139 *52:398 *61:389 0
140 *52:398 *260:17 0
141 *52:425 *292:11 0
142 *52:435 *62:327 0
143 *52:435 *62:343 0
144 *52:435 *276:11 0
145 *52:435 *291:21 0
146 *52:437 *61:444 0.00679562
147 *52:437 *62:343 0
148 *52:437 *291:21 0.000370595
149 *52:449 *61:444 8.80084e-05
150 *52:449 *61:452 0.000869022
151 *52:449 *62:345 2.12107e-05
152 *52:449 *300:15 0.000159155
153 *52:449 *323:19 2.29099e-05
154 *52:475 *337:s4 9.5053e-05
155 *52:475 *61:475 0.00322582
156 *343:s2 *52:73 0.000536221
157 *30:40 *52:73 2.19502e-05
158 *30:42 *52:75 0.00720496
159 *30:55 *52:75 0.0007884
160 *41:13 *344:s3 0.00185138
161 *41:13 *52:13 0.00866756
162 *41:53 *52:75 0.000143752
163 *41:61 *52:79 0
*RES
1 io_in[2] *52:5 197.564 
2 *52:5 *52:7 8 
3 *52:7 *52:9 493.145 
4 *52:9 *52:11 8 
5 *52:11 *52:13 56.728 
6 *52:13 *344:s3 44.8463 
7 *52:13 *52:37 8 
8 *52:37 *52:39 104.379 
9 *52:39 *52:45 23.0971 
10 *52:45 *343:s3 28.4651 
11 *52:45 *52:73 27.8798 
12 *52:73 *52:75 105.084 
13 *52:75 *52:79 18.1883 
14 *52:79 *342:s3 35.5329 
15 *52:79 *52:109 14.2197 
16 *52:109 *52:111 109.309 
17 *52:111 *52:113 8 
18 *52:113 *341:s3 41.0097 
19 *52:113 *52:139 8.8288 
20 *52:139 *52:141 105.084 
21 *52:141 *52:145 10.1914 
22 *52:145 *52:155 49.7813 
23 *52:155 *340:s3 2.80679 
24 *340:s3 *52:164 0.225556 
25 *52:145 *52:169 107.901 
26 *52:169 *52:185 42.4056 
27 *52:185 *339:s3 8 
28 *52:169 *52:202 33.9719 
29 *52:202 *52:204 98.745 
30 *52:204 *52:208 9.77333 
31 *52:208 *338:s3 44.8328 
32 *52:208 *52:232 8 
33 *52:232 *52:234 108.605 
34 *52:234 *52:240 16.9147 
35 *52:240 *52:258 43.7133 
36 *52:258 *352:s3 10.1854 
37 *52:240 *52:268 100.858 
38 *52:268 *351:s3 46.5985 
39 *52:268 *52:296 109.309 
40 *52:296 *52:298 8 
41 *52:298 *350:s3 37.7586 
42 *52:298 *52:324 11.2331 
43 *52:324 *52:326 112.831 
44 *52:326 *52:334 22.4016 
45 *52:334 *52:350 44.1158 
46 *52:350 *349:s3 9.48107 
47 *52:334 *52:360 102.971 
48 *52:360 *52:362 8 
49 *52:362 *348:s3 41.0536 
50 *52:362 *52:392 16.3511 
51 *52:392 *52:394 101.231 
52 *52:394 *52:398 14.5819 
53 *52:398 *347:s3 32.908 
54 *52:398 *52:419 8 
55 *52:419 *52:421 77.72 
56 *52:421 *52:425 11.2271 
57 *52:425 *52:435 35.0609 
58 *52:435 *52:437 100.195 
59 *52:437 *52:449 32.5116 
60 *52:449 *345:s3 41.4439 
61 *52:449 *52:473 8 
62 *52:473 *52:475 93.815 
63 *52:475 *337:s3 48.5248 
64 *52:425 *346:s3 30.1887 
*END

*D_NET *61 0.406546
*CONN
*P io_in[3] I
*I *337:s4 I *D sky130_osu_ring_oscillator_mpr2aa_8_b0r1
*I *345:s4 I *D sky130_osu_ring_oscillator_mpr2at_8_b0r1
*I *346:s4 I *D sky130_osu_ring_oscillator_mpr2ca_8_b0r1
*I *347:s4 I *D sky130_osu_ring_oscillator_mpr2ct_8_b0r1
*I *348:s4 I *D sky130_osu_ring_oscillator_mpr2ea_8_b0r1
*I *349:s4 I *D sky130_osu_ring_oscillator_mpr2et_8_b0r1
*I *350:s4 I *D sky130_osu_ring_oscillator_mpr2xa_8_b0r1
*I *351:s4 I *D sky130_osu_ring_oscillator_mpr2ya_8_b0r1
*I *352:s4 I *D sky130_osu_ring_oscillator_mpr2aa_8_b0r2
*I *338:s4 I *D sky130_osu_ring_oscillator_mpr2at_8_b0r2
*I *339:s4 I *D sky130_osu_ring_oscillator_mpr2ca_8_b0r2
*I *340:s4 I *D sky130_osu_ring_oscillator_mpr2ct_8_b0r2
*I *341:s4 I *D sky130_osu_ring_oscillator_mpr2ea_8_b0r2
*I *342:s4 I *D sky130_osu_ring_oscillator_mpr2et_8_b0r2
*I *343:s4 I *D sky130_osu_ring_oscillator_mpr2xa_8_b0r2
*I *344:s4 I *D sky130_osu_ring_oscillator_mpr2ya_8_b0r2
*CAP
1 io_in[3] 0.000922517
2 *337:s4 0.00127614
3 *345:s4 0.00111514
4 *346:s4 0.00162391
5 *347:s4 0.00198222
6 *348:s4 0.000581445
7 *349:s4 0.00229985
8 *350:s4 0.000169652
9 *351:s4 0.000638998
10 *352:s4 0.000361761
11 *338:s4 0.00110825
12 *339:s4 0.00159639
13 *340:s4 0.00157258
14 *341:s4 0.00114399
15 *342:s4 0.00209315
16 *343:s4 0.000176774
17 *344:s4 0.000456597
18 *61:475 0.00396258
19 *61:473 0.00268644
20 *61:456 0.00128955
21 *61:452 0.000406503
22 *61:444 0.00132845
23 *61:442 0.00173435
24 *61:415 0.00546756
25 *61:413 0.00320564
26 *61:389 0.00224375
27 *61:385 0.00179217
28 *61:383 0.00280088
29 *61:377 0.0042866
30 *61:375 0.00301636
31 *61:359 0.00155225
32 *61:355 0.00405529
33 *61:353 0.0044128
34 *61:316 0.00314553
35 *61:314 0.00420509
36 *61:310 0.00247737
37 *61:282 0.00475306
38 *61:256 0.00477613
39 *61:254 0.00221616
40 *61:244 0.00323682
41 *61:238 0.00419128
42 *61:218 0.00486171
43 *61:212 0.00426578
44 *61:210 0.00372858
45 *61:192 0.00245994
46 *61:184 0.00309785
47 *61:182 0.00298822
48 *61:159 0.00204632
49 *61:157 0.00137165
50 *61:153 0.00328991
51 *61:151 0.00191827
52 *61:129 0.00180454
53 *61:125 0.00506603
54 *61:123 0.00544255
55 *61:109 0.00580633
56 *61:107 0.00542688
57 *61:76 2.99932e-06
58 *61:61 0.00474865
59 *61:59 0.00469581
60 *61:33 0.00495733
61 *61:31 0.00411625
62 *61:13 0.0746938
63 *61:11 0.0742372
64 *61:9 0.0110046
65 *61:7 0.0119272
66 *337:s4 *316:15 0
67 *338:s4 *62:165 0
68 *339:s4 *62:155 3.59647e-05
69 *341:s4 *303:10 2.76208e-05
70 *341:s4 *319:7 0
71 *342:s4 *256:14 0.00100342
72 *342:s4 *304:12 0
73 *345:s4 *62:353 0.000852493
74 *345:s4 *300:15 0.000401601
75 *349:s4 *62:265 0
76 *349:s4 *263:12 0
77 *349:s4 *311:12 0
78 *61:9 *62:9 0.00467286
79 *61:33 *305:7 0.00101375
80 *61:59 *305:7 0.000100305
81 *61:61 *288:10 0
82 *61:123 *62:103 0.000550134
83 *61:125 *62:103 0
84 *61:125 *62:127 0.000389072
85 *61:125 *271:18 0
86 *61:153 *62:127 0
87 *61:157 *62:135 0.00238589
88 *61:157 *62:155 0.00099098
89 *61:157 *317:17 8.21456e-06
90 *61:182 *62:155 0.000306344
91 *61:184 *287:14 0.00345376
92 *61:184 *324:10 0
93 *61:192 *331:13 4.35681e-06
94 *61:210 *311:18 0.000171907
95 *61:210 *331:13 1.1542e-05
96 *61:212 *311:14 0
97 *61:254 *351:s5 8.05439e-05
98 *61:254 *62:202 0
99 *61:254 *62:212 0
100 *61:282 *312:17 0.000473397
101 *61:316 *295:8 0
102 *61:353 *278:11 0
103 *61:353 *294:11 0.000357881
104 *61:355 *326:17 5.08188e-05
105 *61:385 *62:327 0
106 *61:385 *291:21 0
107 *61:415 *62:327 0
108 *61:415 *62:343 0
109 *61:415 *260:13 0.00604907
110 *61:442 *62:343 0
111 *61:444 *62:345 0.00638419
112 *61:444 *291:21 0.000318311
113 *61:444 *323:19 2.11066e-05
114 *61:452 *62:345 0.000851952
115 *61:456 *62:349 0.000756771
116 *61:456 *62:353 7.09925e-05
117 *61:456 *300:15 0.000233797
118 *348:s3 *348:s4 0
119 *348:s3 *61:359 0
120 *350:s3 *61:310 0
121 *351:s3 *351:s4 0
122 *351:s3 *61:254 0.000461302
123 *52:45 *61:59 0
124 *52:109 *61:107 0.000398839
125 *52:111 *61:109 0
126 *52:141 *61:125 0
127 *52:145 *61:153 4.77164e-06
128 *52:155 *340:s4 0.00182504
129 *52:169 *61:153 0.00264463
130 *52:169 *61:157 0
131 *52:185 *339:s4 0.00215634
132 *52:204 *61:192 0.000552924
133 *52:204 *61:210 0.00120845
134 *52:208 *61:210 0
135 *52:234 *61:212 0.00764345
136 *52:268 *61:254 0.00262387
137 *52:334 *61:355 0.000169194
138 *52:360 *61:355 0.00395215
139 *52:394 *61:385 0.00348188
140 *52:398 *347:s4 0
141 *52:398 *61:389 0
142 *52:437 *61:444 0.00679562
143 *52:449 *61:444 8.80084e-05
144 *52:449 *61:452 0.000869022
145 *52:475 *337:s4 9.5053e-05
146 *52:475 *61:475 0.00322582
*RES
1 io_in[3] *61:7 11.0763 
2 *61:7 *61:9 276.929 
3 *61:9 *61:11 8 