*SPEF "ieee 1481-1999"
*DESIGN "user_project_wrapper"
*DATE "11:11:11 Fri 11 11, 1111"
*VENDOR "OpenRCX"
*PROGRAM "Parallel Extraction"
*VERSION "1.0"
*DESIGN_FLOW "NAME_SCOPE LOCAL" "PIN_CAP NONE"
*DIVIDER /
*DELIMITER :
*BUS_DELIMITER []
*T_UNIT 1 NS
*C_UNIT 1 PF
*R_UNIT 1 OHM
*L_UNIT 1 HENRY

*NAME_MAP
*1 analog_io[0]
*2 analog_io[10]
*3 analog_io[11]
*4 analog_io[12]
*5 analog_io[13]
*6 analog_io[14]
*7 analog_io[15]
*8 analog_io[16]
*9 analog_io[17]
*10 analog_io[18]
*11 analog_io[19]
*12 analog_io[1]
*13 analog_io[20]
*14 analog_io[21]
*15 analog_io[22]
*16 analog_io[23]
*17 analog_io[24]
*18 analog_io[25]
*19 analog_io[26]
*20 analog_io[27]
*21 analog_io[28]
*22 analog_io[2]
*23 analog_io[3]
*24 analog_io[4]
*25 analog_io[5]
*26 analog_io[6]
*27 analog_io[7]
*28 analog_io[8]
*29 analog_io[9]
*30 io_in[0]
*31 io_in[10]
*32 io_in[11]
*33 io_in[12]
*34 io_in[13]
*35 io_in[14]
*36 io_in[15]
*37 io_in[16]
*38 io_in[17]
*39 io_in[18]
*40 io_in[19]
*41 io_in[1]
*42 io_in[20]
*43 io_in[21]
*44 io_in[22]
*45 io_in[23]
*46 io_in[24]
*47 io_in[25]
*48 io_in[26]
*49 io_in[27]
*50 io_in[28]
*51 io_in[29]
*52 io_in[2]
*53 io_in[30]
*54 io_in[31]
*55 io_in[32]
*56 io_in[33]
*57 io_in[34]
*58 io_in[35]
*59 io_in[36]
*60 io_in[37]
*61 io_in[3]
*62 io_in[4]
*63 io_in[5]
*64 io_in[6]
*65 io_in[7]
*66 io_in[8]
*67 io_in[9]
*68 io_oeb[0]
*69 io_oeb[10]
*70 io_oeb[11]
*71 io_oeb[12]
*72 io_oeb[13]
*73 io_oeb[14]
*74 io_oeb[15]
*75 io_oeb[16]
*76 io_oeb[17]
*77 io_oeb[18]
*78 io_oeb[19]
*79 io_oeb[1]
*80 io_oeb[20]
*81 io_oeb[21]
*82 io_oeb[22]
*83 io_oeb[23]
*84 io_oeb[24]
*85 io_oeb[25]
*86 io_oeb[26]
*87 io_oeb[27]
*88 io_oeb[28]
*89 io_oeb[29]
*90 io_oeb[2]
*91 io_oeb[30]
*92 io_oeb[31]
*93 io_oeb[32]
*94 io_oeb[33]
*95 io_oeb[34]
*96 io_oeb[35]
*97 io_oeb[36]
*98 io_oeb[37]
*99 io_oeb[3]
*100 io_oeb[4]
*101 io_oeb[5]
*102 io_oeb[6]
*103 io_oeb[7]
*104 io_oeb[8]
*105 io_oeb[9]
*106 io_out[0]
*107 io_out[10]
*108 io_out[11]
*109 io_out[12]
*110 io_out[13]
*111 io_out[14]
*112 io_out[15]
*113 io_out[16]
*114 io_out[17]
*115 io_out[18]
*116 io_out[19]
*117 io_out[1]
*118 io_out[20]
*119 io_out[21]
*120 io_out[22]
*121 io_out[23]
*122 io_out[24]
*123 io_out[25]
*124 io_out[26]
*125 io_out[27]
*126 io_out[28]
*127 io_out[29]
*128 io_out[2]
*129 io_out[30]
*130 io_out[31]
*131 io_out[32]
*132 io_out[33]
*133 io_out[34]
*134 io_out[35]
*135 io_out[36]
*136 io_out[37]
*137 io_out[3]
*138 io_out[4]
*139 io_out[5]
*140 io_out[6]
*141 io_out[7]
*142 io_out[8]
*143 io_out[9]
*146 wb_clk_i
*147 wb_rst_i
*148 wbs_ack_o
*149 wbs_adr_i[0]
*150 wbs_adr_i[10]
*151 wbs_adr_i[11]
*152 wbs_adr_i[12]
*153 wbs_adr_i[13]
*154 wbs_adr_i[14]
*155 wbs_adr_i[15]
*156 wbs_adr_i[16]
*157 wbs_adr_i[17]
*158 wbs_adr_i[18]
*159 wbs_adr_i[19]
*160 wbs_adr_i[1]
*161 wbs_adr_i[20]
*162 wbs_adr_i[21]
*163 wbs_adr_i[22]
*164 wbs_adr_i[23]
*165 wbs_adr_i[24]
*166 wbs_adr_i[25]
*167 wbs_adr_i[26]
*168 wbs_adr_i[27]
*169 wbs_adr_i[28]
*170 wbs_adr_i[29]
*171 wbs_adr_i[2]
*172 wbs_adr_i[30]
*173 wbs_adr_i[31]
*174 wbs_adr_i[3]
*175 wbs_adr_i[4]
*176 wbs_adr_i[5]
*177 wbs_adr_i[6]
*178 wbs_adr_i[7]
*179 wbs_adr_i[8]
*180 wbs_adr_i[9]
*181 wbs_cyc_i
*182 wbs_dat_i[0]
*183 wbs_dat_i[10]
*184 wbs_dat_i[11]
*185 wbs_dat_i[12]
*186 wbs_dat_i[13]
*187 wbs_dat_i[14]
*188 wbs_dat_i[15]
*189 wbs_dat_i[16]
*190 wbs_dat_i[17]
*191 wbs_dat_i[18]
*192 wbs_dat_i[19]
*193 wbs_dat_i[1]
*194 wbs_dat_i[20]
*195 wbs_dat_i[21]
*196 wbs_dat_i[22]
*197 wbs_dat_i[23]
*198 wbs_dat_i[24]
*199 wbs_dat_i[25]
*200 wbs_dat_i[26]
*201 wbs_dat_i[27]
*202 wbs_dat_i[28]
*203 wbs_dat_i[29]
*204 wbs_dat_i[2]
*205 wbs_dat_i[30]
*206 wbs_dat_i[31]
*207 wbs_dat_i[3]
*208 wbs_dat_i[4]
*209 wbs_dat_i[5]
*210 wbs_dat_i[6]
*211 wbs_dat_i[7]
*212 wbs_dat_i[8]
*213 wbs_dat_i[9]
*214 wbs_dat_o[0]
*215 wbs_dat_o[10]
*216 wbs_dat_o[11]
*217 wbs_dat_o[12]
*218 wbs_dat_o[13]
*219 wbs_dat_o[14]
*220 wbs_dat_o[15]
*221 wbs_dat_o[16]
*222 wbs_dat_o[17]
*223 wbs_dat_o[18]
*224 wbs_dat_o[19]
*225 wbs_dat_o[1]
*226 wbs_dat_o[20]
*227 wbs_dat_o[21]
*228 wbs_dat_o[22]
*229 wbs_dat_o[23]
*230 wbs_dat_o[24]
*231 wbs_dat_o[25]
*232 wbs_dat_o[26]
*233 wbs_dat_o[27]
*234 wbs_dat_o[28]
*235 wbs_dat_o[29]
*236 wbs_dat_o[2]
*237 wbs_dat_o[30]
*238 wbs_dat_o[31]
*239 wbs_dat_o[3]
*240 wbs_dat_o[4]
*241 wbs_dat_o[5]
*242 wbs_dat_o[6]
*243 wbs_dat_o[7]
*244 wbs_dat_o[8]
*245 wbs_dat_o[9]
*246 wbs_sel_i[0]
*247 wbs_sel_i[1]
*248 wbs_sel_i[2]
*249 wbs_sel_i[3]
*250 wbs_stb_i
*251 wbs_we_i
*252 x1\[0\]
*253 x1\[10\]
*254 x1\[11\]
*255 x1\[12\]
*256 x1\[13\]
*257 x1\[14\]
*258 x1\[15\]
*259 x1\[1\]
*260 x1\[2\]
*261 x1\[3\]
*262 x1\[4\]
*263 x1\[5\]
*264 x1\[6\]
*265 x1\[7\]
*266 x1\[8\]
*267 x1\[9\]
*268 x2\[0\]
*269 x2\[10\]
*270 x2\[11\]
*271 x2\[12\]
*272 x2\[13\]
*273 x2\[14\]
*274 x2\[15\]
*275 x2\[1\]
*276 x2\[2\]
*277 x2\[3\]
*278 x2\[4\]
*279 x2\[5\]
*280 x2\[6\]
*281 x2\[7\]
*282 x2\[8\]
*283 x2\[9\]
*284 x3\[0\]
*285 x3\[10\]
*286 x3\[11\]
*287 x3\[12\]
*288 x3\[13\]
*289 x3\[14\]
*290 x3\[15\]
*291 x3\[1\]
*292 x3\[2\]
*293 x3\[3\]
*294 x3\[4\]
*295 x3\[5\]
*296 x3\[6\]
*297 x3\[7\]
*298 x3\[8\]
*299 x3\[9\]
*300 x4\[0\]
*301 x4\[10\]
*302 x4\[11\]
*303 x4\[12\]
*304 x4\[13\]
*305 x4\[14\]
*306 x4\[15\]
*307 x4\[1\]
*308 x4\[2\]
*309 x4\[3\]
*310 x4\[4\]
*311 x4\[5\]
*312 x4\[6\]
*313 x4\[7\]
*314 x4\[8\]
*315 x4\[9\]
*316 x5\[0\]
*317 x5\[10\]
*318 x5\[11\]
*319 x5\[12\]
*320 x5\[13\]
*321 x5\[14\]
*322 x5\[15\]
*323 x5\[1\]
*324 x5\[2\]
*325 x5\[3\]
*326 x5\[4\]
*327 x5\[5\]
*328 x5\[6\]
*329 x5\[7\]
*330 x5\[8\]
*331 x5\[9\]
*332 mprj1
*333 mprj2
*334 mprj3
*335 mprj4
*336 mprj5
*337 ro1
*338 ro5
*339 ro7

*PORTS
analog_io[0] I
analog_io[10] I
analog_io[11] I
analog_io[12] I
analog_io[13] I
analog_io[14] I
analog_io[15] I
analog_io[16] I
analog_io[17] I
analog_io[18] I
analog_io[19] I
analog_io[1] I
analog_io[20] I
analog_io[21] I
analog_io[22] I
analog_io[23] I
analog_io[24] I
analog_io[25] I
analog_io[26] I
analog_io[27] I
analog_io[28] I
analog_io[2] I
analog_io[3] I
analog_io[4] I
analog_io[5] I
analog_io[6] I
analog_io[7] I
analog_io[8] I
analog_io[9] I
io_in[0] I
io_in[10] I
io_in[11] I
io_in[12] I
io_in[13] I
io_in[14] I
io_in[15] I
io_in[16] I
io_in[17] I
io_in[18] I
io_in[19] I
io_in[1] I
io_in[20] I
io_in[21] I
io_in[22] I
io_in[23] I
io_in[24] I
io_in[25] I
io_in[26] I
io_in[27] I
io_in[28] I
io_in[29] I
io_in[2] I
io_in[30] I
io_in[31] I
io_in[32] I
io_in[33] I
io_in[34] I
io_in[35] I
io_in[36] I
io_in[37] I
io_in[3] I
io_in[4] I
io_in[5] I
io_in[6] I
io_in[7] I
io_in[8] I
io_in[9] I
io_oeb[0] O
io_oeb[10] O
io_oeb[11] O
io_oeb[12] O
io_oeb[13] O
io_oeb[14] O
io_oeb[15] O
io_oeb[16] O
io_oeb[17] O
io_oeb[18] O
io_oeb[19] O
io_oeb[1] O
io_oeb[20] O
io_oeb[21] O
io_oeb[22] O
io_oeb[23] O
io_oeb[24] O
io_oeb[25] O
io_oeb[26] O
io_oeb[27] O
io_oeb[28] O
io_oeb[29] O
io_oeb[2] O
io_oeb[30] O
io_oeb[31] O
io_oeb[32] O
io_oeb[33] O
io_oeb[34] O
io_oeb[35] O
io_oeb[36] O
io_oeb[37] O
io_oeb[3] O
io_oeb[4] O
io_oeb[5] O
io_oeb[6] O
io_oeb[7] O
io_oeb[8] O
io_oeb[9] O
io_out[0] O
io_out[10] O
io_out[11] O
io_out[12] O
io_out[13] O
io_out[14] O
io_out[15] O
io_out[16] O
io_out[17] O
io_out[18] O
io_out[19] O
io_out[1] O
io_out[20] O
io_out[21] O
io_out[22] O
io_out[23] O
io_out[24] O
io_out[25] O
io_out[26] O
io_out[27] O
io_out[28] O
io_out[29] O
io_out[2] O
io_out[30] O
io_out[31] O
io_out[32] O
io_out[33] O
io_out[34] O
io_out[35] O
io_out[36] O
io_out[37] O
io_out[3] O
io_out[4] O
io_out[5] O
io_out[6] O
io_out[7] O
io_out[8] O
io_out[9] O
wb_clk_i I
wb_rst_i I
wbs_ack_o O
wbs_adr_i[0] I
wbs_adr_i[10] I
wbs_adr_i[11] I
wbs_adr_i[12] I
wbs_adr_i[13] I
wbs_adr_i[14] I
wbs_adr_i[15] I
wbs_adr_i[16] I
wbs_adr_i[17] I
wbs_adr_i[18] I
wbs_adr_i[19] I
wbs_adr_i[1] I
wbs_adr_i[20] I
wbs_adr_i[21] I
wbs_adr_i[22] I
wbs_adr_i[23] I
wbs_adr_i[24] I
wbs_adr_i[25] I
wbs_adr_i[26] I
wbs_adr_i[27] I
wbs_adr_i[28] I
wbs_adr_i[29] I
wbs_adr_i[2] I
wbs_adr_i[30] I
wbs_adr_i[31] I
wbs_adr_i[3] I
wbs_adr_i[4] I
wbs_adr_i[5] I
wbs_adr_i[6] I
wbs_adr_i[7] I
wbs_adr_i[8] I
wbs_adr_i[9] I
wbs_cyc_i I
wbs_dat_i[0] I
wbs_dat_i[10] I
wbs_dat_i[11] I
wbs_dat_i[12] I
wbs_dat_i[13] I
wbs_dat_i[14] I
wbs_dat_i[15] I
wbs_dat_i[16] I
wbs_dat_i[17] I
wbs_dat_i[18] I
wbs_dat_i[19] I
wbs_dat_i[1] I
wbs_dat_i[20] I
wbs_dat_i[21] I
wbs_dat_i[22] I
wbs_dat_i[23] I
wbs_dat_i[24] I
wbs_dat_i[25] I
wbs_dat_i[26] I
wbs_dat_i[27] I
wbs_dat_i[28] I
wbs_dat_i[29] I
wbs_dat_i[2] I
wbs_dat_i[30] I
wbs_dat_i[31] I
wbs_dat_i[3] I
wbs_dat_i[4] I
wbs_dat_i[5] I
wbs_dat_i[6] I
wbs_dat_i[7] I
wbs_dat_i[8] I
wbs_dat_i[9] I
wbs_dat_o[0] O
wbs_dat_o[10] O
wbs_dat_o[11] O
wbs_dat_o[12] O
wbs_dat_o[13] O
wbs_dat_o[14] O
wbs_dat_o[15] O
wbs_dat_o[16] O
wbs_dat_o[17] O
wbs_dat_o[18] O
wbs_dat_o[19] O
wbs_dat_o[1] O
wbs_dat_o[20] O
wbs_dat_o[21] O
wbs_dat_o[22] O
wbs_dat_o[23] O
wbs_dat_o[24] O
wbs_dat_o[25] O
wbs_dat_o[26] O
wbs_dat_o[27] O
wbs_dat_o[28] O
wbs_dat_o[29] O
wbs_dat_o[2] O
wbs_dat_o[30] O
wbs_dat_o[31] O
wbs_dat_o[3] O
wbs_dat_o[4] O
wbs_dat_o[5] O
wbs_dat_o[6] O
wbs_dat_o[7] O
wbs_dat_o[8] O
wbs_dat_o[9] O
wbs_sel_i[0] I
wbs_sel_i[1] I
wbs_sel_i[2] I
wbs_sel_i[3] I
wbs_stb_i I
wbs_we_i I

*D_NET *30 0.401324
*CONN
*P io_in[0] I
*I *337:s1 I *D sky130_osu_ring_oscillator_mpr2aa_8_b0r1
*I *338:s1 I *D sky130_osu_ring_oscillator_mpr2ea_8_b0r1
*I *339:s1 I *D sky130_osu_ring_oscillator_mpr2xa_8_b0r1
*CAP
1 io_in[0] 0.0157557
2 *337:s1 0.000609969
3 *338:s1 0.000448311
4 *339:s1 0.000872396
5 *30:55 0.0169234
6 *30:53 0.0170454
7 *30:32 0.00936375
8 *30:15 0.00905587
9 *30:13 0.0427435
10 *30:11 0.0427435
11 *30:9 0.0498708
12 *30:7 0.0656265
13 *337:s1 *337:start 0.000198293
14 *338:s1 *338:start 3.69182e-05
15 *339:s1 *339:start 0.00012398
16 *30:9 *333:data_in[6] 0
17 *30:9 *41:9 0.108161
18 *30:9 *61:9 0.000210254
19 *30:13 *339:s4 0.000915891
20 *30:13 *41:13 0
21 *30:13 *61:13 0.0198851
22 *30:13 *61:17 0.000733699
*RES
1 io_in[0] *30:7 42.7915 
2 *30:7 *30:9 1362.31 
3 *30:9 *30:11 0.5 
4 *30:11 *30:13 140.519 
5 *30:13 *30:15 0.5 
6 *30:15 *339:s1 19.7025 
7 *30:15 *30:32 148.898 
8 *30:32 *338:s1 11.9175 
9 *30:32 *30:53 10.1297 
10 *30:53 *30:55 297.052 
11 *30:55 *337:s1 15.5063 
*END

*D_NET *41 0.476016
*CONN
*P io_in[1] I
*I *337:s2 I *D sky130_osu_ring_oscillator_mpr2aa_8_b0r1
*I *338:s2 I *D sky130_osu_ring_oscillator_mpr2ea_8_b0r1
*I *339:s2 I *D sky130_osu_ring_oscillator_mpr2xa_8_b0r1
*CAP
1 io_in[1] 0.0157444
2 *337:s2 4.46158e-05
3 *338:s2 0.00141879
4 *339:s2 0.000475168
5 *41:82 0.00401768
6 *41:80 0.00403504
7 *41:78 0.0100057
8 *41:76 0.0125848
9 *41:72 0.00287531
10 *41:37 0.00823671
11 *41:15 0.00752733
12 *41:13 0.0322339
13 *41:11 0.0322339
14 *41:9 0.0200817
15 *41:7 0.0358261
16 *338:s2 *278:6 0
17 *41:9 *52:9 0.00777525
18 *41:9 *61:9 0.0814145
19 *41:13 *339:s3 0.000419917
20 *41:13 *52:13 0.0909042
21 *41:37 *278:6 0
22 *41:82 *268:8 0
23 *30:9 *41:9 0.108161
24 *30:13 *41:13 0
*RES
1 io_in[1] *41:7 42.7332 
2 *41:7 *41:9 1209.31 
3 *41:9 *41:11 0.5 
4 *41:11 *41:13 136.44 
5 *41:13 *41:15 0.5 
6 *41:15 *339:s2 12.3962 
7 *41:15 *41:37 128.34 
8 *41:37 *338:s2 21.66 
9 *338:s2 *41:72 3.29453 
10 *41:72 *41:76 47.565 
11 *41:76 *41:78 181.23 
12 *41:78 *41:80 1.14 
13 *41:80 *41:82 72.555 
14 *41:82 *337:s2 0.8625 
*END

*D_NET *52 0.402206
*CONN
*P io_in[2] I
*I *337:s3 I *D sky130_osu_ring_oscillator_mpr2aa_8_b0r1
*I *338:s3 I *D sky130_osu_ring_oscillator_mpr2ea_8_b0r1
*I *339:s3 I *D sky130_osu_ring_oscillator_mpr2xa_8_b0r1
*CAP
1 io_in[2] 0.016813
2 *337:s3 0.000164977
3 *338:s3 0.00146754
4 *339:s3 0.000450897
5 *52:62 0.0164107
6 *52:60 0.0164971
7 *52:35 0.00830589
8 *52:33 0.00708977
9 *52:13 0.0319559
10 *52:11 0.031505
11 *52:9 0.0367649
12 *52:7 0.0535779
13 *338:s3 *294:12 0
14 *52:9 *61:9 0.0813698
15 *52:62 *284:12 0.000732871
16 *41:9 *52:9 0.00777525
17 *41:13 *339:s3 0.000419917
18 *41:13 *52:13 0.0909042
*RES
1 io_in[2] *52:7 42.6167 
2 *52:7 *52:9 1059.38 
3 *52:9 *52:11 0.5 
4 *52:11 *52:13 134.401 
5 *52:13 *339:s3 10.4832 
6 *52:13 *52:33 0.5 
7 *52:33 *52:35 128.85 
8 *52:35 *338:s3 22.1437 
9 *338:s3 *52:60 2.73232 
10 *52:60 *52:62 300.495 
11 *52:62 *337:s3 4.805 
*END

*D_NET *61 0.378036
*CONN
*P io_in[3] I
*I *337:s4 I *D sky130_osu_ring_oscillator_mpr2aa_8_b0r1
*I *338:s4 I *D sky130_osu_ring_oscillator_mpr2ea_8_b0r1
*I *339:s4 I *D sky130_osu_ring_oscillator_mpr2xa_8_b0r1
*CAP
1 io_in[3] 0.0157405
2 *337:s4 0.00110612
3 *338:s4 0.0015634
4 *339:s4 0.00157418
5 *61:69 0.0170313
6 *61:67 0.0162235
7 *61:39 0.0103062
8 *61:37 0.00844444
9 *61:17 0.00226341
10 *61:13 0.0390767
11 *61:11 0.0383875
12 *61:9 0.012851
13 *61:7 0.0285916
14 *337:s4 *300:12 2.78852e-05
15 *61:39 *62:66 0.000318775
16 *61:39 *268:14 0
17 *61:67 *268:14 0
18 *61:69 *268:14 0
19 *30:9 *61:9 0.000210254
20 *30:13 *339:s4 0.000915891
21 *30:13 *61:13 0.0198851
22 *30:13 *61:17 0.000733699
23 *41:9 *61:9 0.0814145
24 *52:9 *61:9 0.0813698
*RES
1 io_in[3] *61:7 42.6749 
2 *61:7 *61:9 917.085 
3 *61:9 *61:11 0.5 
4 *61:11 *61:13 127.322 
5 *61:13 *61:17 2.7246 
6 *61:17 *339:s4 19.2252 
7 *61:17 *61:37 0.5 
8 *61:37 *61:39 154.125 
9 *61:39 *338:s4 11.7794 
10 *61:39 *61:67 5.385 
11 *61:67 *61:69 289.905 
12 *61:69 *337:s4 21.1663 
*END

*D_NET *62 0.268846
*CONN
*P io_in[4] I
*I *337:s5 I *D sky130_osu_ring_oscillator_mpr2aa_8_b0r1
*I *338:s5 I *D sky130_osu_ring_oscillator_mpr2ea_8_b0r1
*I *339:s5 I *D sky130_osu_ring_oscillator_mpr2xa_8_b0r1
*CAP
1 io_in[4] 0.0643388
2 *337:s5 5.03716e-05
3 *338:s5 0.00112364
4 *339:s5 0.000836276
5 *62:72 0.0139797
6 *62:70 0.0165966
7 *62:66 0.00336261
8 *62:40 0.00876211
9 *62:38 0.00890612
10 *62:9 0.0432479
11 *62:7 0.0429838
12 *62:5 0.0643388
13 *339:s5 *328:9 0
14 *62:66 *268:14 0
15 *61:39 *62:66 0.000318775
*RES
1 io_in[4] *62:5 172.517 
2 *62:5 *62:7 0.5 
3 *62:7 *62:9 752.482 
4 *62:9 *339:s5 6.6575 
5 *339:s5 *62:38 11.8975 
6 *62:38 *62:40 150.938 
7 *62:40 *338:s5 7.45125 
8 *338:s5 *62:66 19.0312 
9 *62:66 *62:70 46.1625 
10 *62:70 *62:72 253.68 
11 *62:72 *337:s5 0.88875 
*END

*D_NET *63 0.247986
*CONN
*P io_in[5] I
*I *337:start I *D sky130_osu_ring_oscillator_mpr2aa_8_b0r1
*I *338:start I *D sky130_osu_ring_oscillator_mpr2ea_8_b0r1
*I *339:start I *D sky130_osu_ring_oscillator_mpr2xa_8_b0r1
*CAP
1 io_in[5] 0.00113926
2 *337:start 0.000574549
3 *338:start 0.000583377
4 *339:start 0.000605075
5 *63:41 0.0173371
6 *63:36 0
7 *63:29 0.0259661
8 *63:17 0.0422605
9 *63:15 0.0330353
10 *63:13 0.0624932
11 *63:11 0.0636325
12 *337:s1 *337:start 0.000198293
13 *338:s1 *338:start 3.69182e-05
14 *339:s1 *339:start 0.00012398
*RES
1 io_in[5] *63:11 9.46823 
2 *63:11 *63:13 1078.92 
3 *63:13 *63:15 2 
4 *63:15 *63:17 601.905 
5 *63:17 *339:start 13.16 
6 *63:17 *63:29 156.93 
7 *63:29 *338:start 12.455 
8 *338:start *63:36 0.154737 
9 *63:29 *63:41 305.34 
10 *63:41 *337:start 13.1788 
*END

*D_NET *64 0.110641
*CONN
*P io_in[6] I
*I *335:select[0] I *D mux16x1_project
*I *334:select[0] I *D mux16x1_project
*I *333:select[0] I *D mux16x1_project
*I *332:select[0] I *D mux16x1_project
*I *336:select[0] I *D mux16x1_project
*CAP
1 io_in[6] 0.01314
2 *335:select[0] 7.07784e-05
3 *334:select[0] 7.07784e-05
4 *333:select[0] 8.69088e-05
5 *332:select[0] 0.00042936
6 *336:select[0] 0.000462365
7 *64:79 0.00795795
8 *64:77 0.00841166
9 *64:69 0.00144849
10 *64:57 0.00325541
11 *64:55 0.00299083
12 *64:49 0.00395156
13 *64:47 0.00389022
14 *64:45 0.00327647
15 *64:43 0.00327541
16 *64:41 0.00357131
17 *64:39 0.00362415
18 *64:37 0.00479992
19 *64:35 0.00740904
20 *64:27 0.00354795
21 *64:15 0.00333537
22 *64:9 0.00587826
23 *64:7 0.0170213
24 *332:select[0] *65:87 0
25 *64:9 *336:select[3] 0
26 *64:15 *336:select[1] 0
27 *64:41 *65:47 0
28 *64:45 *65:47 0.00453852
29 *64:49 *65:47 0
30 *64:49 *65:63 0
31 *64:57 *65:63 0.00271884
32 *64:57 *65:71 0.000869807
33 *64:69 *65:71 0.000347271
34 *64:77 *333:select[1] 0
35 *64:77 *65:71 4.61501e-05
36 *64:77 *65:87 0.000214812
*RES
1 io_in[6] *64:7 35.7995 
2 *64:7 *64:9 67.935 
3 *64:9 *64:15 6.22373 
4 *64:15 *336:select[0] 8.34 
5 *64:15 *64:27 15.87 
6 *64:27 *64:35 43.5307 
7 *64:35 *64:37 86.295 
8 *64:37 *64:39 1.14 
9 *64:39 *64:41 63.585 
10 *64:41 *64:43 1.485 
11 *64:43 *64:45 87.075 
12 *64:45 *64:47 1.485 
13 *64:47 *64:49 67.935 
14 *64:49 *64:55 1.50413 
15 *64:55 *64:57 74.4375 
16 *64:57 *64:69 14.6125 
17 *64:69 *64:77 13.237 
18 *64:77 *64:79 136.658 
19 *64:79 *332:select[0] 11.1175 
20 *64:69 *333:select[0] 1.605 
21 *64:47 *334:select[0] 1.26 
22 *64:39 *335:select[0] 1.26 
*END

*D_NET *65 0.116282
*CONN
*P io_in[7] I
*I *335:select[1] I *D mux16x1_project
*I *332:select[1] I *D mux16x1_project
*I *333:select[1] I *D mux16x1_project
*I *334:select[1] I *D mux16x1_project
*I *336:select[1] I *D mux16x1_project
*CAP
1 io_in[7] 0.0134103
2 *335:select[1] 0.000548174
3 *332:select[1] 0.00122772
4 *333:select[1] 0.0012455
5 *334:select[1] 0.0013023
6 *336:select[1] 0.00200384
7 *65:87 0.00940416
8 *65:71 0.0110318
9 *65:63 0.00686769
10 *65:47 0.0131665
11 *65:45 0.00757102
12 *65:41 0.00366004
13 *65:19 0.00980989
14 *65:17 0.00796862
15 *65:13 0.0157201
16 *336:select[1] *336:select[2] 0.00127772
17 *336:select[1] *336:select[3] 0.000232939
18 *65:19 *67:75 0
19 *65:19 *106:9 0
20 *65:19 *106:19 0
21 *65:41 *335:select[2] 0.000325896
22 *65:41 *66:33 0.000141408
23 *65:41 *106:19 0.000630906
24 *332:select[0] *65:87 0
25 *64:15 *336:select[1] 0
26 *64:41 *65:47 0
27 *64:45 *65:47 0.00453852
28 *64:49 *65:47 0
29 *64:49 *65:63 0
30 *64:57 *65:63 0.00271884
31 *64:57 *65:71 0.000869807
32 *64:69 *65:71 0.000347271
33 *64:77 *333:select[1] 0
34 *64:77 *65:71 4.61501e-05
35 *64:77 *65:87 0.000214812
*RES
1 io_in[7] *65:13 48.4206 
2 *65:13 *65:17 0.945867 
3 *65:17 *65:19 141.885 
4 *65:19 *336:select[1] 16.9245 
5 *65:13 *65:41 13.4105 
6 *65:41 *65:45 2.69387 
7 *65:45 *65:47 149.025 
8 *65:47 *334:select[1] 10.6056 
9 *65:47 *65:63 112.995 
10 *65:63 *65:71 38.505 
11 *65:71 *333:select[1] 10.4308 
12 *65:71 *65:87 150.045 
13 *65:87 *332:select[1] 10.4308 
14 *65:41 *335:select[1] 10.46 
*END

*D_NET *66 0.110162
*CONN
*P io_in[8] I
*I *332:select[2] I *D mux16x1_project
*I *333:select[2] I *D mux16x1_project
*I *336:select[2] I *D mux16x1_project
*I *335:select[2] I *D mux16x1_project
*I *334:select[2] I *D mux16x1_project
*CAP
1 io_in[8] 0.0137104
2 *332:select[2] 0.00148196
3 *333:select[2] 0.00137509
4 *336:select[2] 0.00106535
5 *335:select[2] 0.00107395
6 *334:select[2] 0.00149596
7 *66:85 0.00970453
8 *66:83 0.00822257
9 *66:69 0.00147858
10 *66:65 0.00669194
11 *66:49 0.00898512
12 *66:47 0.00791976
13 *66:33 0.00139226
14 *66:29 0.00860225
15 *66:27 0.00828395
16 *66:13 0.00335705
17 *66:7 0.0221599
18 *333:select[2] *67:21 0.000642006
19 *336:select[2] *336:select[3] 5.91244e-05
20 *66:13 *106:29 0
21 *66:49 *336:select[3] 5.35797e-05
22 *66:49 *67:59 0.000348126
23 *66:49 *67:73 1.03833e-05
24 *66:65 *67:13 2.67006e-05
25 *66:65 *106:29 0
26 *66:65 *106:39 0
27 *66:69 *67:21 0.000276814
28 *66:85 *67:11 0
29 *66:85 *67:13 0
30 *66:85 *67:91 0
31 *336:select[1] *336:select[2] 0.00127772
32 *65:41 *335:select[2] 0.000325896
33 *65:41 *66:33 0.000141408
*RES
1 io_in[8] *66:7 34.9255 
2 *66:7 *66:13 31.6509 
3 *66:13 *334:select[2] 10.5233 
4 *66:13 *66:27 0.5 
5 *66:27 *66:29 150.555 
6 *66:29 *66:33 1.35373 
7 *66:33 *335:select[2] 9.70753 
8 *66:33 *66:47 0.5 
9 *66:47 *66:49 146.475 
10 *66:49 *336:select[2] 13.7775 
11 *66:7 *66:65 119.955 
12 *66:65 *66:69 0.945867 
13 *66:69 *333:select[2] 11.0333 
14 *66:69 *66:83 0.5 
15 *66:83 *66:85 149.535 
16 *66:85 *332:select[2] 11.0233 
*END

*D_NET *67 0.0973415
*CONN
*P io_in[9] I
*I *332:select[3] I *D mux16x1_project
*I *336:select[3] I *D mux16x1_project
*I *335:select[3] I *D mux16x1_project
*I *334:select[3] I *D mux16x1_project
*I *333:select[3] I *D mux16x1_project
*CAP
1 io_in[9] 0.012795
2 *332:select[3] 0.000587569
3 *336:select[3] 0.00104095
4 *335:select[3] 8.84053e-05
5 *334:select[3] 0.000107408
6 *333:select[3] 8.72559e-05
7 *67:91 0.00398319
8 *67:75 0.00866897
9 *67:73 0.00800278
10 *67:59 0.00133826
11 *67:51 0.00684096
12 *67:49 0.00724627
13 *67:39 0.00215919
14 *67:35 0.0067314
15 *67:33 0.00753949
16 *67:21 0.00255821
17 *67:13 0.00485182
18 *67:11 0.00441714
19 *67:7 0.0166475
20 *67:11 *106:39 0
21 *67:13 *106:39 0
22 *67:91 *106:39 0
23 *333:select[2] *67:21 0.000642006
24 *336:select[1] *336:select[3] 0.000232939
25 *336:select[2] *336:select[3] 5.91244e-05
26 *64:9 *336:select[3] 0
27 *65:19 *67:75 0
28 *66:49 *336:select[3] 5.35797e-05
29 *66:49 *67:59 0.000348126
30 *66:49 *67:73 1.03833e-05
31 *66:65 *67:13 2.67006e-05
32 *66:69 *67:21 0.000276814
33 *66:85 *67:11 0
34 *66:85 *67:13 0
35 *66:85 *67:91 0
*RES
1 io_in[9] *67:7 34.9255 
2 *67:7 *67:11 8.325 
3 *67:11 *67:13 72.24 
4 *67:13 *67:21 11.2697 
5 *67:21 *333:select[3] 1.605 
6 *67:21 *67:33 28.875 
7 *67:33 *67:35 108.78 
8 *67:35 *67:39 13.95 
9 *67:39 *334:select[3] 1.95 
10 *67:39 *67:49 23.385 
11 *67:49 *67:51 108.78 
12 *67:51 *67:59 18.015 
13 *67:59 *335:select[3] 1.605 
14 *67:59 *67:73 10.2025 
15 *67:73 *67:75 138.697 
16 *67:75 *336:select[3] 14.9585 
17 *67:7 *67:91 61.6875 
18 *67:91 *332:select[3] 13.8775 
*END

*D_NET *106 0.192439
*CONN
*P io_out[0] O
*I *332:y O *D mux16x1_project
*I *333:y O *D mux16x1_project
*I *334:y O *D mux16x1_project
*I *335:y O *D mux16x1_project
*I *336:y O *D mux16x1_project
*CAP
1 io_out[0] 0.0124745
2 *332:y 0.00055847
3 *333:y 0.000549482
4 *334:y 0.000549482
5 *335:y 0.000591272
6 *336:y 0.000541126
7 *106:53 0.0601019
8 *106:51 0.0477899
9 *106:39 0.00880959
10 *106:29 0.0170507
11 *106:19 0.016906
12 *106:9 0.0169396
13 *106:7 0.00824195
14 *106:5 0.000703712
15 *65:19 *106:9 0
16 *65:19 *106:19 0
17 *65:41 *106:19 0.000630906
18 *66:13 *106:29 0
19 *66:65 *106:29 0
20 *66:65 *106:39 0
21 *67:11 *106:39 0
22 *67:13 *106:39 0
23 *67:91 *106:39 0
*RES
1 *336:y *106:5 1.38827 
2 *106:5 *106:7 0.5 
3 *106:7 *106:9 150.045 
4 *106:9 *335:y 1.88827 
5 *106:9 *106:19 150.045 
6 *106:19 *334:y 1.88827 
7 *106:19 *106:29 150.045 
8 *106:29 *333:y 1.88827 
9 *106:29 *106:39 150.045 
10 *106:39 *332:y 1.88827 
11 *106:5 *106:51 0.945867 
12 *106:51 *106:53 867.105 
13 *106:53 io_out[0] 34.0515 
*END

*D_NET *252 0.121345
*CONN
*I *332:data_in[0] I *D mux16x1_project
*I *337:X1_Y1 O *D sky130_osu_ring_oscillator_mpr2aa_8_b0r1
*CAP
1 *332:data_in[0] 0.00106387
2 *337:X1_Y1 0.00216734
3 *252:18 0.0465677
4 *252:16 0.0455038
5 *252:14 0.0119375
6 *252:12 0.0141048
7 *332:data_in[0] *300:18 0
*RES
1 *337:X1_Y1 *252:12 42.8737 
2 *252:12 *252:14 217.583 
3 *252:14 *252:16 2 
4 *252:16 *252:18 807.75 
5 *252:18 *332:data_in[0] 9.40997 
*END

*D_NET *262 0.101264
*CONN
*I *332:data_in[4] I *D mux16x1_project
*I *338:X1_Y1 O *D sky130_osu_ring_oscillator_mpr2ea_8_b0r1
*CAP
1 *332:data_in[4] 0.00206614
2 *338:X1_Y1 0.000505362
3 *262:10 0.0492754
4 *262:8 0.0477147
5 *332:data_in[4] *264:26 0.000981267
6 *332:data_in[4] *268:22 0.000721648
7 *332:data_in[4] *284:18 0
*RES
1 *338:X1_Y1 *262:8 13.12 
2 *262:8 *262:10 813.96 
3 *262:10 *332:data_in[4] 41.0375 
*END

*D_NET *264 0.183693
*CONN
*I *332:data_in[6] I *D mux16x1_project
*I *339:X1_Y1 O *D sky130_osu_ring_oscillator_mpr2xa_8_b0r1
*CAP
1 *332:data_in[6] 0.000528739
2 *339:X1_Y1 0.00120893
3 *264:26 0.00387929
4 *264:24 0.00335055
5 *264:22 0.0286042
6 *264:20 0.0298131
7 *264:20 *280:14 1.90686e-05
8 *264:20 *280:16 2.30292e-05
9 *264:22 *280:16 0.0887749
10 *264:26 *333:data_in[6] 0.00285853
11 *264:26 *268:22 0.00899802
12 *264:26 *284:18 0.00121764
13 *264:26 *294:18 0.0134248
14 *264:26 *310:18 1.07797e-05
15 *332:data_in[4] *264:26 0.000981267
*RES
1 *339:X1_Y1 *264:20 27.1287 
2 *264:20 *264:22 802.23 
3 *264:22 *264:24 2 
4 *264:24 *264:26 182.048 
5 *264:26 *332:data_in[6] 1.94653 
*END

*D_NET *268 0.144184
*CONN
*I *333:data_in[0] I *D mux16x1_project
*I *337:X2_Y1 O *D sky130_osu_ring_oscillator_mpr2aa_8_b0r1
*CAP
1 *333:data_in[0] 0.000532955
2 *337:X2_Y1 0.000692816
3 *268:22 0.00381743
4 *268:20 0.00328448
5 *268:18 0.0439941
6 *268:16 0.0439941
7 *268:14 0.016199
8 *268:12 0.0184876
9 *268:8 0.00298145
10 *268:12 *284:12 0
11 *268:12 *300:14 0
12 *268:18 *326:9 0.000480782
13 *332:data_in[4] *268:22 0.000721648
14 *41:82 *268:8 0
15 *61:39 *268:14 0
16 *61:67 *268:14 0
17 *61:69 *268:14 0
18 *62:66 *268:14 0
19 *264:26 *268:22 0.00899802
*RES
1 *337:X2_Y1 *268:8 16.5775 
2 *268:8 *268:12 41.78 
3 *268:12 *268:14 294.63 
4 *268:14 *268:16 2 
5 *268:16 *268:18 762.555 
6 *268:18 *268:20 2 
7 *268:20 *268:22 100.448 
8 *268:22 *333:data_in[0] 1.88827 
*END

*D_NET *278 0.10762
*CONN
*I *333:data_in[4] I *D mux16x1_project
*I *338:X2_Y1 O *D sky130_osu_ring_oscillator_mpr2ea_8_b0r1
*CAP
1 *333:data_in[4] 0.00101604
2 *338:X2_Y1 0
3 *278:10 0.0472109
4 *278:8 0.0461948
5 *278:6 0.00659925
6 *278:4 0.00659925
7 *333:data_in[4] *300:18 0
8 *338:s2 *278:6 0
9 *41:37 *278:6 0
*RES
1 *338:X2_Y1 *278:4 2 
2 *278:4 *278:6 117.75 
3 *278:6 *278:8 2 
4 *278:8 *278:10 797.4 
5 *278:10 *333:data_in[4] 8.89997 
*END

*D_NET *280 0.153361
*CONN
*I *333:data_in[6] I *D mux16x1_project
*I *339:X2_Y1 O *D sky130_osu_ring_oscillator_mpr2xa_8_b0r1
*CAP
1 *333:data_in[6] 0.00167683
2 *339:X2_Y1 0.000517128
3 *280:16 0.0303203
4 *280:14 0.0291606
5 *333:data_in[6] *294:18 1.07797e-05
6 *30:9 *333:data_in[6] 0
7 *264:20 *280:14 1.90686e-05
8 *264:20 *280:16 2.30292e-05
9 *264:22 *280:16 0.0887749
10 *264:26 *333:data_in[6] 0.00285853
*RES
1 *339:X2_Y1 *280:14 14.4613 
2 *280:14 *280:16 802.92 
3 *280:16 *333:data_in[6] 36.2508 
*END

*D_NET *284 0.241097
*CONN
*I *334:data_in[0] I *D mux16x1_project
*I *337:X3_Y1 O *D sky130_osu_ring_oscillator_mpr2aa_8_b0r1
*CAP
1 *334:data_in[0] 0.000625612
2 *337:X3_Y1 0.000813536
3 *284:18 0.0139007
4 *284:16 0.0132751
5 *284:14 0.0277256
6 *284:12 0.0285391
7 *284:14 *300:14 0.084459
8 *284:18 *300:18 0.0485543
9 *284:18 *310:18 0.021253
10 *332:data_in[4] *284:18 0
11 *52:62 *284:12 0.000732871
12 *264:26 *284:18 0.00121764
13 *268:12 *284:12 0
*RES
1 *337:X3_Y1 *284:12 23.23 
2 *284:12 *284:14 784.463 
3 *284:14 *284:16 2 
4 *284:16 *284:18 543.128 
5 *284:18 *334:data_in[0] 2.12133 
*END

*D_NET *294 0.191616
*CONN
*I *334:data_in[4] I *D mux16x1_project
*I *338:X3_Y1 O *D sky130_osu_ring_oscillator_mpr2ea_8_b0r1
*CAP
1 *334:data_in[4] 0.000559626
2 *338:X3_Y1 0.000979093
3 *294:18 0.00636029
4 *294:16 0.00580066
5 *294:14 0.0287998
6 *294:12 0.0297788
7 *294:14 *310:12 0
8 *294:14 *310:14 0.0828525
9 *294:18 *310:18 0.0230496
10 *333:data_in[6] *294:18 1.07797e-05
11 *338:s3 *294:12 0
12 *264:26 *294:18 0.0134248
*RES
1 *338:X3_Y1 *294:12 21.4525 
2 *294:12 *294:14 785.153 
3 *294:14 *294:16 2 
4 *294:16 *294:18 258.038 
5 *294:18 *334:data_in[4] 2.0048 
*END

*D_NET *296 0.106652
*CONN
*I *334:data_in[6] I *D mux16x1_project
*I *339:X3_Y1 O *D sky130_osu_ring_oscillator_mpr2xa_8_b0r1
*CAP
1 *334:data_in[6] 0.00107267
2 *339:X3_Y1 0.00124796
3 *296:14 0.0466676
4 *296:12 0.0455949
5 *296:10 0.00541053
6 *296:8 0.00665849
7 *334:data_in[6] *300:18 0
*RES
1 *339:X3_Y1 *296:8 24.5975 
2 *296:8 *296:10 98.6025 
3 *296:10 *296:12 2 
4 *296:12 *296:14 787.05 
5 *296:14 *334:data_in[6] 8.64497 
*END

*D_NET *300 0.246925
*CONN
*I *335:data_in[0] I *D mux16x1_project
*I *337:X4_Y1 O *D sky130_osu_ring_oscillator_mpr2aa_8_b0r1
*CAP
1 *335:data_in[0] 0.000636859
2 *337:X4_Y1 0.000884641
3 *300:18 0.024867
4 *300:16 0.0242302
5 *300:14 0.0272888
6 *300:12 0.0281735
7 *300:18 *310:18 0.00780271
8 *332:data_in[0] *300:18 0
9 *333:data_in[4] *300:18 0
10 *334:data_in[6] *300:18 0
11 *337:s4 *300:12 2.78852e-05
12 *268:12 *300:14 0
13 *284:14 *300:14 0.084459
14 *284:18 *300:18 0.0485543
*RES
1 *337:X4_Y1 *300:12 21.5263 
2 *300:12 *300:14 776.7 
3 *300:14 *300:16 2 
4 *300:16 *300:18 693.323 
5 *300:18 *335:data_in[0] 2.1796 
*END

*D_NET *310 0.213289
*CONN
*I *335:data_in[4] I *D mux16x1_project
*I *338:X4_Y1 O *D sky130_osu_ring_oscillator_mpr2ea_8_b0r1
*CAP
1 *335:data_in[4] 0.000579901
2 *338:X4_Y1 0.00239332
3 *310:18 0.0101169
4 *310:16 0.00953697
5 *310:14 0.0266501
6 *310:12 0.0290434
7 *264:26 *310:18 1.07797e-05
8 *284:18 *310:18 0.021253
9 *294:14 *310:12 0
10 *294:14 *310:14 0.0828525
11 *294:18 *310:18 0.0230496
12 *300:18 *310:18 0.00780271
*RES
1 *338:X4_Y1 *310:12 45.3475 
2 *310:12 *310:14 748.583 
3 *310:14 *310:16 2 
4 *310:16 *310:18 408.233 
5 *310:18 *335:data_in[4] 2.06307 
*END

*D_NET *312 0.121672
*CONN
*I *335:data_in[6] I *D mux16x1_project
*I *339:X4_Y1 O *D sky130_osu_ring_oscillator_mpr2xa_8_b0r1
*CAP
1 *335:data_in[6] 0.000992989
2 *339:X4_Y1 0.000891991
3 *312:18 0.0456833
4 *312:16 0.0446904
5 *312:14 0.0142605
6 *312:12 0.0151525
*RES
1 *339:X4_Y1 *312:12 21.585 
2 *312:12 *312:14 259.695 
3 *312:14 *312:16 2 
4 *312:16 *312:18 771.525 
5 *312:18 *335:data_in[6] 8.64497 
*END

*D_NET *316 0.200547
*CONN
*I *336:data_in[0] I *D mux16x1_project
*I *337:X5_Y1 O *D sky130_osu_ring_oscillator_mpr2aa_8_b0r1
*CAP
1 *336:data_in[0] 0.00101162
2 *337:X5_Y1 0.000631778
3 *316:15 0.0434205
4 *316:13 0.0424089
5 *316:11 0.0388313
6 *316:9 0.0394631
7 *316:11 *328:11 0.0347802
*RES
1 *337:X5_Y1 *316:9 12.725 
2 *316:9 *316:11 851.805 
3 *316:11 *316:13 2 
4 *316:13 *316:15 753.24 
5 *316:15 *336:data_in[0] 8.89997 
*END

*D_NET *326 0.152828
*CONN
*I *336:data_in[4] I *D mux16x1_project
*I *338:X5_Y1 O *D sky130_osu_ring_oscillator_mpr2ea_8_b0r1
*CAP
1 *336:data_in[4] 0.00105612
2 *338:X5_Y1 0.000589296
3 *326:15 0.0443603
4 *326:13 0.0433042
5 *326:11 0.031224
6 *326:9 0.0318133
7 *268:18 *326:9 0.000480782
*RES
1 *338:X5_Y1 *326:9 14.9225 
2 *326:9 *326:11 567.48 
3 *326:11 *326:13 2 
4 *326:13 *326:15 748.065 
5 *326:15 *336:data_in[4] 8.64497 
*END

*D_NET *328 0.153123
*CONN
*I *336:data_in[6] I *D mux16x1_project
*I *339:X5_Y1 O *D sky130_osu_ring_oscillator_mpr2xa_8_b0r1
*CAP
1 *336:data_in[6] 0.000978294
2 *339:X5_Y1 0.000759221
3 *328:15 0.0433523
4 *328:13 0.042374
5 *328:11 0.01506
6 *328:9 0.0158192
7 *339:s5 *328:9 0
8 *316:11 *328:11 0.0347802
*RES