*SPEF "ieee 1481-1999"
*DESIGN "user_project_wrapper"
*DATE "11:11:11 Fri 11 11, 1111"
*VENDOR "OpenRCX"
*PROGRAM "Parallel Extraction"
*VERSION "1.0"
*DESIGN_FLOW "NAME_SCOPE LOCAL" "PIN_CAP NONE"
*DIVIDER /
*DELIMITER :
*BUS_DELIMITER []
*T_UNIT 1 NS
*C_UNIT 1 PF
*R_UNIT 1 OHM
*L_UNIT 1 HENRY

*NAME_MAP
*1 analog_io[0]
*2 analog_io[10]
*3 analog_io[11]
*4 analog_io[12]
*5 analog_io[13]
*6 analog_io[14]
*7 analog_io[15]
*8 analog_io[16]
*9 analog_io[17]
*10 analog_io[18]
*11 analog_io[19]
*12 analog_io[1]
*13 analog_io[20]
*14 analog_io[21]
*15 analog_io[22]
*16 analog_io[23]
*17 analog_io[24]
*18 analog_io[25]
*19 analog_io[26]
*20 analog_io[27]
*21 analog_io[28]
*22 analog_io[2]
*23 analog_io[3]
*24 analog_io[4]
*25 analog_io[5]
*26 analog_io[6]
*27 analog_io[7]
*28 analog_io[8]
*29 analog_io[9]
*30 io_in[0]
*31 io_in[10]
*32 io_in[11]
*33 io_in[12]
*34 io_in[13]
*35 io_in[14]
*36 io_in[15]
*37 io_in[16]
*38 io_in[17]
*39 io_in[18]
*40 io_in[19]
*41 io_in[1]
*42 io_in[20]
*43 io_in[21]
*44 io_in[22]
*45 io_in[23]
*46 io_in[24]
*47 io_in[25]
*48 io_in[26]
*49 io_in[27]
*50 io_in[28]
*51 io_in[29]
*52 io_in[2]
*53 io_in[30]
*54 io_in[31]
*55 io_in[32]
*56 io_in[33]
*57 io_in[34]
*58 io_in[35]
*59 io_in[36]
*60 io_in[37]
*61 io_in[3]
*62 io_in[4]
*63 io_in[5]
*64 io_in[6]
*65 io_in[7]
*66 io_in[8]
*67 io_in[9]
*68 io_oeb[0]
*69 io_oeb[10]
*70 io_oeb[11]
*71 io_oeb[12]
*72 io_oeb[13]
*73 io_oeb[14]
*74 io_oeb[15]
*75 io_oeb[16]
*76 io_oeb[17]
*77 io_oeb[18]
*78 io_oeb[19]
*79 io_oeb[1]
*80 io_oeb[20]
*81 io_oeb[21]
*82 io_oeb[22]
*83 io_oeb[23]
*84 io_oeb[24]
*85 io_oeb[25]
*86 io_oeb[26]
*87 io_oeb[27]
*88 io_oeb[28]
*89 io_oeb[29]
*90 io_oeb[2]
*91 io_oeb[30]
*92 io_oeb[31]
*93 io_oeb[32]
*94 io_oeb[33]
*95 io_oeb[34]
*96 io_oeb[35]
*97 io_oeb[36]
*98 io_oeb[37]
*99 io_oeb[3]
*100 io_oeb[4]
*101 io_oeb[5]
*102 io_oeb[6]
*103 io_oeb[7]
*104 io_oeb[8]
*105 io_oeb[9]
*106 io_out[0]
*107 io_out[10]
*108 io_out[11]
*109 io_out[12]
*110 io_out[13]
*111 io_out[14]
*112 io_out[15]
*113 io_out[16]
*114 io_out[17]
*115 io_out[18]
*116 io_out[19]
*117 io_out[1]
*118 io_out[20]
*119 io_out[21]
*120 io_out[22]
*121 io_out[23]
*122 io_out[24]
*123 io_out[25]
*124 io_out[26]
*125 io_out[27]
*126 io_out[28]
*127 io_out[29]
*128 io_out[2]
*129 io_out[30]
*130 io_out[31]
*131 io_out[32]
*132 io_out[33]
*133 io_out[34]
*134 io_out[35]
*135 io_out[36]
*136 io_out[37]
*137 io_out[3]
*138 io_out[4]
*139 io_out[5]
*140 io_out[6]
*141 io_out[7]
*142 io_out[8]
*143 io_out[9]
*146 wb_clk_i
*147 wb_rst_i
*148 wbs_ack_o
*149 wbs_adr_i[0]
*150 wbs_adr_i[10]
*151 wbs_adr_i[11]
*152 wbs_adr_i[12]
*153 wbs_adr_i[13]
*154 wbs_adr_i[14]
*155 wbs_adr_i[15]
*156 wbs_adr_i[16]
*157 wbs_adr_i[17]
*158 wbs_adr_i[18]
*159 wbs_adr_i[19]
*160 wbs_adr_i[1]
*161 wbs_adr_i[20]
*162 wbs_adr_i[21]
*163 wbs_adr_i[22]
*164 wbs_adr_i[23]
*165 wbs_adr_i[24]
*166 wbs_adr_i[25]
*167 wbs_adr_i[26]
*168 wbs_adr_i[27]
*169 wbs_adr_i[28]
*170 wbs_adr_i[29]
*171 wbs_adr_i[2]
*172 wbs_adr_i[30]
*173 wbs_adr_i[31]
*174 wbs_adr_i[3]
*175 wbs_adr_i[4]
*176 wbs_adr_i[5]
*177 wbs_adr_i[6]
*178 wbs_adr_i[7]
*179 wbs_adr_i[8]
*180 wbs_adr_i[9]
*181 wbs_cyc_i
*182 wbs_dat_i[0]
*183 wbs_dat_i[10]
*184 wbs_dat_i[11]
*185 wbs_dat_i[12]
*186 wbs_dat_i[13]
*187 wbs_dat_i[14]
*188 wbs_dat_i[15]
*189 wbs_dat_i[16]
*190 wbs_dat_i[17]
*191 wbs_dat_i[18]
*192 wbs_dat_i[19]
*193 wbs_dat_i[1]
*194 wbs_dat_i[20]
*195 wbs_dat_i[21]
*196 wbs_dat_i[22]
*197 wbs_dat_i[23]
*198 wbs_dat_i[24]
*199 wbs_dat_i[25]
*200 wbs_dat_i[26]
*201 wbs_dat_i[27]
*202 wbs_dat_i[28]
*203 wbs_dat_i[29]
*204 wbs_dat_i[2]
*205 wbs_dat_i[30]
*206 wbs_dat_i[31]
*207 wbs_dat_i[3]
*208 wbs_dat_i[4]
*209 wbs_dat_i[5]
*210 wbs_dat_i[6]
*211 wbs_dat_i[7]
*212 wbs_dat_i[8]
*213 wbs_dat_i[9]
*214 wbs_dat_o[0]
*215 wbs_dat_o[10]
*216 wbs_dat_o[11]
*217 wbs_dat_o[12]
*218 wbs_dat_o[13]
*219 wbs_dat_o[14]
*220 wbs_dat_o[15]
*221 wbs_dat_o[16]
*222 wbs_dat_o[17]
*223 wbs_dat_o[18]
*224 wbs_dat_o[19]
*225 wbs_dat_o[1]
*226 wbs_dat_o[20]
*227 wbs_dat_o[21]
*228 wbs_dat_o[22]
*229 wbs_dat_o[23]
*230 wbs_dat_o[24]
*231 wbs_dat_o[25]
*232 wbs_dat_o[26]
*233 wbs_dat_o[27]
*234 wbs_dat_o[28]
*235 wbs_dat_o[29]
*236 wbs_dat_o[2]
*237 wbs_dat_o[30]
*238 wbs_dat_o[31]
*239 wbs_dat_o[3]
*240 wbs_dat_o[4]
*241 wbs_dat_o[5]
*242 wbs_dat_o[6]
*243 wbs_dat_o[7]
*244 wbs_dat_o[8]
*245 wbs_dat_o[9]
*246 wbs_sel_i[0]
*247 wbs_sel_i[1]
*248 wbs_sel_i[2]
*249 wbs_sel_i[3]
*250 wbs_stb_i
*251 wbs_we_i
*252 x1\[0\]
*253 x1\[10\]
*254 x1\[11\]
*255 x1\[12\]
*256 x1\[13\]
*257 x1\[14\]
*258 x1\[15\]
*259 x1\[1\]
*260 x1\[2\]
*261 x1\[3\]
*262 x1\[4\]
*263 x1\[5\]
*264 x1\[6\]
*265 x1\[7\]
*266 x1\[8\]
*267 x1\[9\]
*268 x2\[0\]
*269 x2\[10\]
*270 x2\[11\]
*271 x2\[12\]
*272 x2\[13\]
*273 x2\[14\]
*274 x2\[15\]
*275 x2\[1\]
*276 x2\[2\]
*277 x2\[3\]
*278 x2\[4\]
*279 x2\[5\]
*280 x2\[6\]
*281 x2\[7\]
*282 x2\[8\]
*283 x2\[9\]
*284 x3\[0\]
*285 x3\[10\]
*286 x3\[11\]
*287 x3\[12\]
*288 x3\[13\]
*289 x3\[14\]
*290 x3\[15\]
*291 x3\[1\]
*292 x3\[2\]
*293 x3\[3\]
*294 x3\[4\]
*295 x3\[5\]
*296 x3\[6\]
*297 x3\[7\]
*298 x3\[8\]
*299 x3\[9\]
*300 x4\[0\]
*301 x4\[10\]
*302 x4\[11\]
*303 x4\[12\]
*304 x4\[13\]
*305 x4\[14\]
*306 x4\[15\]
*307 x4\[1\]
*308 x4\[2\]
*309 x4\[3\]
*310 x4\[4\]
*311 x4\[5\]
*312 x4\[6\]
*313 x4\[7\]
*314 x4\[8\]
*315 x4\[9\]
*316 x5\[0\]
*317 x5\[10\]
*318 x5\[11\]
*319 x5\[12\]
*320 x5\[13\]
*321 x5\[14\]
*322 x5\[15\]
*323 x5\[1\]
*324 x5\[2\]
*325 x5\[3\]
*326 x5\[4\]
*327 x5\[5\]
*328 x5\[6\]
*329 x5\[7\]
*330 x5\[8\]
*331 x5\[9\]
*332 mprj1
*333 mprj2
*334 mprj3
*335 mprj4
*336 mprj5
*337 ro1
*338 ro10
*339 ro11
*340 ro12
*341 ro13
*342 ro14
*343 ro15
*344 ro16
*345 ro2
*346 ro3
*347 ro4
*348 ro5
*349 ro6
*350 ro7
*351 ro8
*352 ro9

*PORTS
analog_io[0] I
analog_io[10] I
analog_io[11] I
analog_io[12] I
analog_io[13] I
analog_io[14] I
analog_io[15] I
analog_io[16] I
analog_io[17] I
analog_io[18] I
analog_io[19] I
analog_io[1] I
analog_io[20] I
analog_io[21] I
analog_io[22] I
analog_io[23] I
analog_io[24] I
analog_io[25] I
analog_io[26] I
analog_io[27] I
analog_io[28] I
analog_io[2] I
analog_io[3] I
analog_io[4] I
analog_io[5] I
analog_io[6] I
analog_io[7] I
analog_io[8] I
analog_io[9] I
io_in[0] I
io_in[10] I
io_in[11] I
io_in[12] I
io_in[13] I
io_in[14] I
io_in[15] I
io_in[16] I
io_in[17] I
io_in[18] I
io_in[19] I
io_in[1] I
io_in[20] I
io_in[21] I
io_in[22] I
io_in[23] I
io_in[24] I
io_in[25] I
io_in[26] I
io_in[27] I
io_in[28] I
io_in[29] I
io_in[2] I
io_in[30] I
io_in[31] I
io_in[32] I
io_in[33] I
io_in[34] I
io_in[35] I
io_in[36] I
io_in[37] I
io_in[3] I
io_in[4] I
io_in[5] I
io_in[6] I
io_in[7] I
io_in[8] I
io_in[9] I
io_oeb[0] O
io_oeb[10] O
io_oeb[11] O
io_oeb[12] O
io_oeb[13] O
io_oeb[14] O
io_oeb[15] O
io_oeb[16] O
io_oeb[17] O
io_oeb[18] O
io_oeb[19] O
io_oeb[1] O
io_oeb[20] O
io_oeb[21] O
io_oeb[22] O
io_oeb[23] O
io_oeb[24] O
io_oeb[25] O
io_oeb[26] O
io_oeb[27] O
io_oeb[28] O
io_oeb[29] O
io_oeb[2] O
io_oeb[30] O
io_oeb[31] O
io_oeb[32] O
io_oeb[33] O
io_oeb[34] O
io_oeb[35] O
io_oeb[36] O
io_oeb[37] O
io_oeb[3] O
io_oeb[4] O
io_oeb[5] O
io_oeb[6] O
io_oeb[7] O
io_oeb[8] O
io_oeb[9] O
io_out[0] O
io_out[10] O
io_out[11] O
io_out[12] O
io_out[13] O
io_out[14] O
io_out[15] O
io_out[16] O
io_out[17] O
io_out[18] O
io_out[19] O
io_out[1] O
io_out[20] O
io_out[21] O
io_out[22] O
io_out[23] O
io_out[24] O
io_out[25] O
io_out[26] O
io_out[27] O
io_out[28] O
io_out[29] O
io_out[2] O
io_out[30] O
io_out[31] O
io_out[32] O
io_out[33] O
io_out[34] O
io_out[35] O
io_out[36] O
io_out[37] O
io_out[3] O
io_out[4] O
io_out[5] O
io_out[6] O
io_out[7] O
io_out[8] O
io_out[9] O
wb_clk_i I
wb_rst_i I
wbs_ack_o O
wbs_adr_i[0] I
wbs_adr_i[10] I
wbs_adr_i[11] I
wbs_adr_i[12] I
wbs_adr_i[13] I
wbs_adr_i[14] I
wbs_adr_i[15] I
wbs_adr_i[16] I
wbs_adr_i[17] I
wbs_adr_i[18] I
wbs_adr_i[19] I
wbs_adr_i[1] I
wbs_adr_i[20] I
wbs_adr_i[21] I
wbs_adr_i[22] I
wbs_adr_i[23] I
wbs_adr_i[24] I
wbs_adr_i[25] I
wbs_adr_i[26] I
wbs_adr_i[27] I
wbs_adr_i[28] I
wbs_adr_i[29] I
wbs_adr_i[2] I
wbs_adr_i[30] I
wbs_adr_i[31] I
wbs_adr_i[3] I
wbs_adr_i[4] I
wbs_adr_i[5] I
wbs_adr_i[6] I
wbs_adr_i[7] I
wbs_adr_i[8] I
wbs_adr_i[9] I
wbs_cyc_i I
wbs_dat_i[0] I
wbs_dat_i[10] I
wbs_dat_i[11] I
wbs_dat_i[12] I
wbs_dat_i[13] I
wbs_dat_i[14] I
wbs_dat_i[15] I
wbs_dat_i[16] I
wbs_dat_i[17] I
wbs_dat_i[18] I
wbs_dat_i[19] I
wbs_dat_i[1] I
wbs_dat_i[20] I
wbs_dat_i[21] I
wbs_dat_i[22] I
wbs_dat_i[23] I
wbs_dat_i[24] I
wbs_dat_i[25] I
wbs_dat_i[26] I
wbs_dat_i[27] I
wbs_dat_i[28] I
wbs_dat_i[29] I
wbs_dat_i[2] I
wbs_dat_i[30] I
wbs_dat_i[31] I
wbs_dat_i[3] I
wbs_dat_i[4] I
wbs_dat_i[5] I
wbs_dat_i[6] I
wbs_dat_i[7] I
wbs_dat_i[8] I
wbs_dat_i[9] I
wbs_dat_o[0] O
wbs_dat_o[10] O
wbs_dat_o[11] O
wbs_dat_o[12] O
wbs_dat_o[13] O
wbs_dat_o[14] O
wbs_dat_o[15] O
wbs_dat_o[16] O
wbs_dat_o[17] O
wbs_dat_o[18] O
wbs_dat_o[19] O
wbs_dat_o[1] O
wbs_dat_o[20] O
wbs_dat_o[21] O
wbs_dat_o[22] O
wbs_dat_o[23] O
wbs_dat_o[24] O
wbs_dat_o[25] O
wbs_dat_o[26] O
wbs_dat_o[27] O
wbs_dat_o[28] O
wbs_dat_o[29] O
wbs_dat_o[2] O
wbs_dat_o[30] O
wbs_dat_o[31] O
wbs_dat_o[3] O
wbs_dat_o[4] O
wbs_dat_o[5] O
wbs_dat_o[6] O
wbs_dat_o[7] O
wbs_dat_o[8] O
wbs_dat_o[9] O
wbs_sel_i[0] I
wbs_sel_i[1] I
wbs_sel_i[2] I
wbs_sel_i[3] I
wbs_stb_i I
wbs_we_i I

*D_NET *30 0.44109
*CONN
*P io_in[0] I
*I *344:s1 I *D sky130_osu_ring_oscillator_mpr2ya_8_b0r2
*I *343:s1 I *D sky130_osu_ring_oscillator_mpr2xa_8_b0r2
*I *342:s1 I *D sky130_osu_ring_oscillator_mpr2et_8_b0r2
*I *346:s1 I *D sky130_osu_ring_oscillator_mpr2ca_8_b0r1
*I *337:s1 I *D sky130_osu_ring_oscillator_mpr2aa_8_b0r1
*I *345:s1 I *D sky130_osu_ring_oscillator_mpr2at_8_b0r1
*I *347:s1 I *D sky130_osu_ring_oscillator_mpr2ct_8_b0r1
*I *348:s1 I *D sky130_osu_ring_oscillator_mpr2ea_8_b0r1
*I *349:s1 I *D sky130_osu_ring_oscillator_mpr2et_8_b0r1
*I *350:s1 I *D sky130_osu_ring_oscillator_mpr2xa_8_b0r1
*I *351:s1 I *D sky130_osu_ring_oscillator_mpr2ya_8_b0r1
*I *352:s1 I *D sky130_osu_ring_oscillator_mpr2aa_8_b0r2
*I *338:s1 I *D sky130_osu_ring_oscillator_mpr2at_8_b0r2
*I *339:s1 I *D sky130_osu_ring_oscillator_mpr2ca_8_b0r2
*I *340:s1 I *D sky130_osu_ring_oscillator_mpr2ct_8_b0r2
*I *341:s1 I *D sky130_osu_ring_oscillator_mpr2ea_8_b0r2
*CAP
1 io_in[0] 0.0748016
2 *344:s1 0
3 *343:s1 5.49058e-05
4 *342:s1 0.000305195
5 *346:s1 0.000688214
6 *337:s1 0.00122205
7 *345:s1 0
8 *347:s1 9.15124e-06
9 *348:s1 0.000453249
10 *349:s1 0
11 *350:s1 0.000153808
12 *351:s1 0.000534679
13 *352:s1 0.000928497
14 *338:s1 0.000826324
15 *339:s1 0.000214264
16 *340:s1 0.000208582
17 *341:s1 0.000414132
18 *30:351 0.000405397
19 *30:285 0.00522992
20 *30:278 0.0005456
21 *30:274 0.00983665
22 *30:272 0.0058363
23 *30:268 0.00124134
24 *30:266 0.00404663
25 *30:264 0.00450515
26 *30:247 0.00172123
27 *30:237 0.00493559
28 *30:235 0.00417866
29 *30:214 0.00393627
30 *30:207 0.000549367
31 *30:203 0.00616676
32 *30:201 0.00324731
33 *30:197 0.00218588
34 *30:170 0.0023642
35 *30:162 0.00400481
36 *30:160 0.00379383
37 *30:152 0.000853212
38 *30:138 0.00451699
39 *30:136 0.00471118
40 *30:117 0.00489346
41 *30:115 0.00427047
42 *30:113 0.000784044
43 *30:87 0.00453998
44 *30:85 0.00547754
45 *30:61 0.00418451
46 *30:50 0.00617781
47 *30:39 0.00659424
48 *30:37 0.00393593
49 *30:31 0.005364
50 *30:29 0.00475101
51 *30:23 0.000755334
52 *30:19 0.00463247
53 *30:17 0.00464857
54 *30:13 0.00343273
55 *30:9 0.0320243
56 *30:7 0.0292866
57 *30:5 0.0748016
58 *337:s1 *337:start 0
59 *337:s1 *41:349 0
60 *337:s1 *41:355 0
61 *337:s1 *41:361 0
62 *339:s1 *339:s2 0.000113134
63 *339:s1 *339:start 9.3383e-05
64 *340:s1 *340:s2 2.9721e-05
65 *340:s1 *340:start 3.06889e-05
66 *341:s1 *341:s2 7.41951e-05
67 *341:s1 *341:start 9.66668e-05
68 *346:s1 *260:16 0
69 *348:s1 *348:start 2.05042e-05
70 *348:s1 *41:243 7.9003e-05
71 *30:9 *41:9 0.02846
72 *30:13 *41:21 0.0053182
73 *30:13 *52:21 0.00054823
74 *30:17 *52:21 0.00022731
75 *30:19 *52:23 0
76 *30:29 *41:39 8.30418e-05
77 *30:39 *41:55 0.00049357
78 *30:39 *41:71 0.0085717
79 *30:39 *41:87 0.000132778
80 *30:50 *41:87 0.00844588
81 *30:50 *41:101 0.000132625
82 *30:61 *41:101 0.0084198
83 *30:61 *41:120 0.000102007
84 *30:85 *41:120 0.000241588
85 *30:113 *41:132 0.00134912
86 *30:117 *41:120 0
87 *30:117 *41:146 0
88 *30:117 *41:148 0
89 *30:138 *265:12 0
90 *30:160 *351:start 0.00014384
91 *30:162 *41:163 0.0002164
92 *30:162 *52:264 0.00401137
93 *30:203 *41:209 0.00265353
94 *30:203 *52:280 0
95 *30:207 *349:start 9.66668e-05
96 *30:214 *41:209 0.000465659
97 *30:214 *41:235 0.00797741
98 *30:214 *41:250 0.000132625
99 *30:214 *52:280 0
100 *30:214 *52:303 0
101 *30:235 *41:250 0.000379789
102 *30:235 *52:309 0.0010713
103 *30:247 *41:254 0
104 *30:264 *41:258 0.000596359
105 *30:278 *345:start 0.000100486
106 *30:285 *41:349 0
*RES
1 io_in[0] *30:5 256.812 
2 *30:5 *30:7 8 
3 *30:7 *30:9 895.292 
4 *30:9 *30:13 21.5371 
5 *30:13 *30:17 9.42987 
6 *30:17 *30:19 100.154 
7 *30:19 *30:23 9.04347 
8 *30:23 *30:29 9.82 
9 *30:29 *30:31 98.745 
10 *30:31 *30:37 18.7179 
11 *30:37 *30:39 116.88 
12 *30:39 *341:s1 48.0309 
13 *30:39 *30:50 108.957 
14 *30:50 *340:s1 42.6763 
15 *30:50 *30:61 108.253 
16 *30:61 *339:s1 20.9761 
17 *30:61 *30:85 22.3713 
18 *30:85 *30:87 101.562 
19 *30:87 *338:s1 1.04607 
20 *338:s1 *30:113 48.6113 
21 *30:113 *30:115 8 
22 *30:115 *30:117 98.2168 
23 *30:117 *352:s1 28.9096 
24 *352:s1 *30:136 36.7321 
25 *30:136 *30:138 101.573 
26 *30:138 *351:s1 2.79643 
27 *351:s1 *30:152 24.5389 
28 *30:152 *30:160 25.0257 
29 *30:160 *30:162 109.133 
30 *30:162 *30:170 10.4845 
31 *30:170 *350:s1 25.1151 
32 *30:170 *30:197 47.0538 
33 *30:197 *30:201 14.3964 
34 *30:201 *30:203 72.9661 
35 *30:203 *30:207 27.3457 
36 *30:207 *349:s1 23 
37 *30:203 *30:214 108.957 
38 *30:214 *348:s1 48.9061 
39 *30:214 *30:235 22.9299 
40 *30:235 *30:237 84.6593 
41 *30:237 *30:247 37.4606 
42 *30:247 *347:s1 15.2589 
43 *30:247 *30:264 18.0459 
44 *30:264 *30:266 93.1107 
45 *30:266 *30:268 8 
46 *30:268 *30:272 10.0309 
47 *30:272 *30:274 121.458 
48 *30:274 *30:278 27.5891 
49 *30:278 *345:s1 23 
50 *30:274 *30:285 92.7275 
51 *30:285 *337:s1 42.26 
52 *30:268 *346:s1 19.217 
53 *30:31 *342:s1 6.98589 
54 *30:23 *343:s1 23.5473 
55 *30:13 *30:351 46.5446 
56 *30:351 *344:s1 15 
*END

*D_NET *41 0.461361
*CONN
*P io_in[1] I
*I *344:s2 I *D sky130_osu_ring_oscillator_mpr2ya_8_b0r2
*I *351:s2 I *D sky130_osu_ring_oscillator_mpr2ya_8_b0r1
*I *337:s2 I *D sky130_osu_ring_oscillator_mpr2aa_8_b0r1
*I *345:s2 I *D sky130_osu_ring_oscillator_mpr2at_8_b0r1
*I *346:s2 I *D sky130_osu_ring_oscillator_mpr2ca_8_b0r1
*I *347:s2 I *D sky130_osu_ring_oscillator_mpr2ct_8_b0r1
*I *348:s2 I *D sky130_osu_ring_oscillator_mpr2ea_8_b0r1
*I *349:s2 I *D sky130_osu_ring_oscillator_mpr2et_8_b0r1
*I *350:s2 I *D sky130_osu_ring_oscillator_mpr2xa_8_b0r1
*I *352:s2 I *D sky130_osu_ring_oscillator_mpr2aa_8_b0r2
*I *338:s2 I *D sky130_osu_ring_oscillator_mpr2at_8_b0r2
*I *339:s2 I *D sky130_osu_ring_oscillator_mpr2ca_8_b0r2
*I *340:s2 I *D sky130_osu_ring_oscillator_mpr2ct_8_b0r2
*I *341:s2 I *D sky130_osu_ring_oscillator_mpr2ea_8_b0r2
*I *342:s2 I *D sky130_osu_ring_oscillator_mpr2et_8_b0r2
*I *343:s2 I *D sky130_osu_ring_oscillator_mpr2xa_8_b0r2
*CAP
1 io_in[1] 0.0747713
2 *344:s2 0
3 *351:s2 0.000693501
4 *337:s2 0
5 *345:s2 0.000356409
6 *346:s2 0.000461736
7 *347:s2 0.000319039
8 *348:s2 0
9 *349:s2 0.00176426
10 *350:s2 0.000583943
11 *352:s2 4.57196e-05
12 *338:s2 0.000185719
13 *339:s2 0.00103875
14 *340:s2 0.000993431
15 *341:s2 0.00118327
16 *342:s2 0.00142713
17 *343:s2 0.000148442
18 *41:394 0.00055639
19 *41:361 0.0011171
20 *41:355 0.00177097
21 *41:349 0.00436451
22 *41:347 0.00485102
23 *41:343 0.00161777
24 *41:333 0.000856828
25 *41:318 0.000505357
26 *41:308 0.00457823
27 *41:306 0.00468025
28 *41:282 0.00444537
29 *41:280 0.00490252
30 *41:258 0.00193398
31 *41:254 0.00296553
32 *41:250 0.00492199
33 *41:243 0.00117537
34 *41:235 0.006933
35 *41:209 0.00568565
36 *41:207 0.00241147
37 *41:201 0.00445452
38 *41:199 0.00363053
39 *41:181 0.00186726
40 *41:171 0.00479513
41 *41:169 0.00307311
42 *41:167 0.00196062
43 *41:163 0.0061904
44 *41:152 0.00125642
45 *41:148 0.0102338
46 *41:146 0.00441927
47 *41:132 0.00199873
48 *41:120 0.00715383
49 *41:101 0.00904502
50 *41:87 0.00699345
51 *41:71 0.00721115
52 *41:55 0.00658316
53 *41:53 0.00219139
54 *41:51 0.00221559
55 *41:39 0.00128076
56 *41:27 0.0061145
57 *41:25 0.00376927
58 *41:21 0.00291503
59 *41:9 0.0152619
60 *41:7 0.0138578
61 *41:5 0.0747713
62 *339:s2 *339:start 4.15013e-05
63 *340:s2 *340:start 2.95526e-05
64 *341:s2 *341:start 1.24362e-05
65 *342:s2 *342:start 4.49581e-06
66 *349:s2 *52:294 0.00189765
67 *41:9 *52:9 0.0199636
68 *41:21 *52:13 0.00396562
69 *41:21 *52:21 0.000897798
70 *41:25 *52:21 0.00135603
71 *41:27 *52:23 0.00810519
72 *41:39 *52:29 0.00295408
73 *41:51 *52:23 6.44037e-05
74 *41:152 *352:start 5.45644e-05
75 *41:181 *280:8 0
76 *41:243 *348:start 5.58003e-05
77 *41:250 *52:303 0
78 *337:s1 *41:349 0
79 *337:s1 *41:355 0
80 *337:s1 *41:361 0
81 *339:s1 *339:s2 0.000113134
82 *340:s1 *340:s2 2.9721e-05
83 *341:s1 *341:s2 7.41951e-05
84 *348:s1 *41:243 7.9003e-05
85 *30:9 *41:9 0.02846
86 *30:13 *41:21 0.0053182
87 *30:29 *41:39 8.30418e-05
88 *30:39 *41:55 0.00049357
89 *30:39 *41:71 0.0085717
90 *30:39 *41:87 0.000132778
91 *30:50 *41:87 0.00844588
92 *30:50 *41:101 0.000132625
93 *30:61 *41:101 0.0084198
94 *30:61 *41:120 0.000102007
95 *30:85 *41:120 0.000241588
96 *30:113 *41:132 0.00134912
97 *30:117 *41:120 0
98 *30:117 *41:146 0
99 *30:117 *41:148 0
100 *30:162 *41:163 0.0002164
101 *30:203 *41:209 0.00265353
102 *30:214 *41:209 0.000465659
103 *30:214 *41:235 0.00797741
104 *30:214 *41:250 0.000132625
105 *30:235 *41:250 0.000379789
106 *30:247 *41:254 0
107 *30:264 *41:258 0.000596359
108 *30:285 *41:349 0
*RES
1 io_in[1] *41:5 256.641 
2 *41:5 *41:7 8 
3 *41:7 *41:9 690.345 
4 *41:9 *41:21 38.8552 
5 *41:21 *41:25 12.6928 
6 *41:25 *41:27 102.971 
7 *41:27 *41:39 41.5095 
8 *41:39 *343:s2 18.3713 
9 *41:27 *41:51 50.0457 
10 *41:51 *41:53 1.09786 
11 *41:53 *41:55 51.4854 
12 *41:55 *342:s2 47.0864 
13 *41:55 *41:71 108.957 
14 *41:71 *341:s2 42.4568 
15 *41:71 *41:87 108.957 
16 *41:87 *340:s2 37.8375 
17 *41:87 *41:101 108.605 
18 *41:101 *339:s2 39.7432 
19 *41:101 *41:120 116.528 
20 *41:120 *41:132 42.1965 
21 *41:132 *338:s2 19.2723 
22 *41:120 *41:146 7.20857 
23 *41:146 *41:148 94.9439 
24 *41:148 *41:152 41.825 
25 *41:152 *352:s2 30.87 
26 *41:148 *41:163 113.711 
27 *41:163 *41:167 12.6069 
28 *41:167 *41:169 8 
29 *41:169 *41:171 70.5736 
30 *41:171 *41:181 47.8825 
31 *41:181 *350:s2 3.59393 
32 *350:s2 *41:199 21.1761 
33 *41:199 *41:201 73.3907 
34 *41:201 *41:207 20.5211 
35 *41:207 *41:209 39.585 
36 *41:209 *349:s2 44.9414 
37 *41:209 *41:235 101.386 
38 *41:235 *41:243 42.462 
39 *41:243 *348:s2 23 
40 *41:235 *41:250 70.3975 
41 *41:250 *41:254 44.7843 
42 *41:254 *41:258 12.0488 
43 *41:258 *347:s2 26.7284 
44 *41:258 *41:280 9.90213 
45 *41:280 *41:282 99.4493 
46 *41:282 *346:s2 3.08125 
47 *346:s2 *41:306 18.5649 
48 *41:306 *41:308 100.154 
49 *41:308 *345:s2 6.06411 
50 *345:s2 *41:318 3.48518 
51 *41:318 *41:333 38.2443 
52 *41:333 *41:343 47.5182 
53 *41:343 *41:347 12.0059 
54 *41:347 *41:349 85.8607 
55 *41:349 *41:355 29.8832 
56 *41:355 *41:361 39.5671 
57 *41:361 *337:s2 15 
58 *41:167 *351:s2 13.8283 
59 *41:21 *41:394 34.8589 
60 *41:394 *344:s2 23 
*END

*D_NET *52 0.495846
*CONN
*P io_in[2] I
*I *344:s3 I *D sky130_osu_ring_oscillator_mpr2ya_8_b0r2
*I *350:s3 I *D sky130_osu_ring_oscillator_mpr2xa_8_b0r1
*I *337:s3 I *D sky130_osu_ring_oscillator_mpr2aa_8_b0r1
*I *345:s3 I *D sky130_osu_ring_oscillator_mpr2at_8_b0r1
*I *346:s3 I *D sky130_osu_ring_oscillator_mpr2ca_8_b0r1
*I *347:s3 I *D sky130_osu_ring_oscillator_mpr2ct_8_b0r1
*I *348:s3 I *D sky130_osu_ring_oscillator_mpr2ea_8_b0r1
*I *349:s3 I *D sky130_osu_ring_oscillator_mpr2et_8_b0r1
*I *351:s3 I *D sky130_osu_ring_oscillator_mpr2ya_8_b0r1
*I *352:s3 I *D sky130_osu_ring_oscillator_mpr2aa_8_b0r2
*I *338:s3 I *D sky130_osu_ring_oscillator_mpr2at_8_b0r2
*I *339:s3 I *D sky130_osu_ring_oscillator_mpr2ca_8_b0r2
*I *340:s3 I *D sky130_osu_ring_oscillator_mpr2ct_8_b0r2
*I *341:s3 I *D sky130_osu_ring_oscillator_mpr2ea_8_b0r2
*I *342:s3 I *D sky130_osu_ring_oscillator_mpr2et_8_b0r2
*I *343:s3 I *D sky130_osu_ring_oscillator_mpr2xa_8_b0r2
*CAP
1 io_in[2] 0.0729622
2 *344:s3 0.000462212
3 *350:s3 0.000657718
4 *337:s3 0.00254774
5 *345:s3 3.45158e-05
6 *346:s3 0.000616098
7 *347:s3 0.00259181
8 *348:s3 0.000404444
9 *349:s3 9.9455e-05
10 *351:s3 0.000463516
11 *352:s3 0.00164796
12 *338:s3 0.000127548
13 *339:s3 0.00211375
14 *340:s3 0.00222289
15 *341:s3 0.00270229
16 *342:s3 0.00228553
17 *343:s3 0.000374149
18 *52:434 0.00738822
19 *52:432 0.00680302
20 *52:422 0.0025702
21 *52:399 0.000787033
22 *52:393 0.00429166
23 *52:376 0.00642121
24 *52:370 0.00360506
25 *52:368 0.0020576
26 *52:366 0.00230291
27 *52:341 0.00614545
28 *52:339 0.0036756
29 *52:333 0.00520295
30 *52:309 0.00587254
31 *52:303 0.00723027
32 *52:294 0.00294627
33 *52:280 0.010666
34 *52:272 0.00704037
35 *52:270 0.00387225
36 *52:268 0.00267102
37 *52:264 0.00526305
38 *52:262 0.00546552
39 *52:237 0.00497395
40 *52:231 0.00433622
41 *52:229 0.00265966
42 *52:225 0.00210426
43 *52:211 0.00164796
44 *52:209 0.00432025
45 *52:195 0.00188416
46 *52:183 0.00515783
47 *52:175 0.00527198
48 *52:173 0.00507867
49 *52:150 0.00269361
50 *52:144 0.00184668
51 *52:142 0.00164064
52 *52:121 0.0024474
53 *52:117 0.00498326
54 *52:115 0.00505788
55 *52:89 0.00300141
56 *52:87 0.00303768
57 *52:85 0.00303768
58 *52:61 0.0031404
59 *52:57 0.00549524
60 *52:55 0.00787929
61 *52:29 0.00528909
62 *52:23 0.00459276
63 *52:21 0.00441988
64 *52:13 0.00299253
65 *52:9 0.0154067
66 *52:7 0.0143796
67 *52:5 0.0729622
68 *339:s3 *339:s4 0.00219661
69 *340:s3 *340:s4 0.00171886
70 *340:s3 *62:151 0
71 *342:s3 *61:117 0.000224393
72 *342:s3 *62:114 0.000642441
73 *347:s3 *347:s4 0.00190507
74 *347:s3 *61:408 0.000241974
75 *352:s3 *352:s4 0
76 *352:s3 *352:s5 0.000275854
77 *352:s3 *61:281 0
78 *52:13 *61:13 0.00219683
79 *52:57 *257:22 0
80 *52:57 *272:14 0.000903614
81 *52:57 *273:14 0
82 *52:61 *61:117 7.23111e-06
83 *52:61 *62:114 0.000266313
84 *52:87 *61:121 0.00783013
85 *52:87 *62:130 0.000288335
86 *52:117 *61:121 0
87 *52:117 *61:157 0
88 *52:117 *61:159 0
89 *52:117 *61:171 0
90 *52:121 *340:s4 6.7705e-05
91 *52:144 *61:171 6.17582e-05
92 *52:144 *61:192 0.00548373
93 *52:144 *61:198 0.00106279
94 *52:144 *62:153 0.00350466
95 *52:144 *62:157 0.000837939
96 *52:144 *62:175 0.000269416
97 *52:150 *61:198 0.000612126
98 *52:150 *62:175 0.000259733
99 *52:150 *62:177 0
100 *52:173 *61:227 0
101 *52:175 *338:s5 0
102 *52:175 *256:18 0
103 *52:175 *313:18 0
104 *52:183 *61:237 0.00127351
105 *52:183 *61:249 0
106 *52:195 *61:249 0.00125446
107 *52:209 *61:237 6.17582e-05
108 *52:209 *61:263 0.00751587
109 *52:209 *61:281 0.000269832
110 *52:225 *352:s5 7.30312e-05
111 *52:225 *61:281 0.000200288
112 *52:225 *61:283 0
113 *52:229 *61:283 0.0016975
114 *52:229 *295:18 0
115 *52:229 *296:14 0
116 *52:231 *61:283 0.00205058
117 *52:231 *61:291 0.000602378
118 *52:231 *62:243 0
119 *52:231 *295:18 0
120 *52:237 *351:s4 0
121 *52:272 *279:10 0
122 *52:341 *61:404 0.00368468
123 *52:366 *61:429 0
124 *52:370 *61:429 0.00219824
125 *52:370 *61:456 2.79482e-05
126 *52:376 *346:s4 0.00223636
127 *52:422 *291:12 4.53779e-05
128 *52:432 *61:478 0.00040279
129 *52:434 *61:480 0
130 *52:434 *62:371 0
131 *349:s2 *52:294 0.00189765
132 *30:13 *52:21 0.00054823
133 *30:17 *52:21 0.00022731
134 *30:19 *52:23 0
135 *30:162 *52:264 0.00401137
136 *30:203 *52:280 0
137 *30:214 *52:280 0
138 *30:214 *52:303 0
139 *30:235 *52:309 0.0010713
140 *41:9 *52:9 0.0199636
141 *41:21 *52:13 0.00396562
142 *41:21 *52:21 0.000897798
143 *41:25 *52:21 0.00135603
144 *41:27 *52:23 0.00810519
145 *41:39 *52:29 0.00295408
146 *41:51 *52:23 6.44037e-05
147 *41:250 *52:303 0
*RES
1 io_in[2] *52:5 256.469 
2 *52:5 *52:7 8 
3 *52:7 *52:9 484.694 
4 *52:9 *52:13 15.5264 
5 *52:13 *52:21 16.7509 
6 *52:21 *52:23 105.084 
7 *52:23 *52:29 24.3851 
8 *52:29 *343:s3 38.4048 
9 *52:29 *52:55 28.7037 
10 *52:55 *52:57 114.944 
11 *52:57 *52:61 10.632 
12 *52:61 *342:s3 44.8767 
13 *52:61 *52:85 8 
14 *52:85 *52:87 104.379 
15 *52:87 *52:89 8 
16 *52:89 *341:s3 41.7682 
17 *52:89 *52:115 8.74293 
18 *52:115 *52:117 107.196 
19 *52:117 *52:121 8.65707 
20 *52:121 *340:s3 37.2721 
21 *52:121 *52:142 8 
22 *52:142 *52:144 99.4493 
23 *52:144 *52:150 16.5136 
24 *52:150 *339:s3 36.1911 
25 *52:150 *52:173 9.17227 
26 *52:173 *52:175 107.196 
27 *52:175 *52:183 21.6974 
28 *52:183 *52:195 44.4984 
29 *52:195 *338:s3 17.8068 
30 *52:183 *52:209 99.9775 
31 *52:209 *52:211 15 
32 *52:211 *352:s3 38.6839 
33 *52:209 *52:225 35.1004 
34 *52:225 *52:229 22.2057 
35 *52:229 *52:231 64.7736 
36 *52:231 *52:237 23.9557 
37 *52:237 *351:s3 48.6575 
38 *52:237 *52:262 26.1451 
39 *52:262 *52:264 104.379 
40 *52:264 *52:268 15.0971 
41 *52:268 *52:270 8 
42 *52:270 *52:272 88.885 
43 *52:272 *52:280 43.7349 
44 *52:280 *52:294 47.8307 
45 *52:294 *349:s3 17.2475 
46 *52:280 *52:303 107.196 
47 *52:303 *52:309 25.7589 
48 *52:309 *348:s3 22.6754 
49 *52:309 *52:333 66.3479 
50 *52:333 *52:339 23.8699 
51 *52:339 *52:341 47.3321 
52 *52:341 *347:s3 48.6914 
53 *52:341 *52:366 49.8386 
54 *52:366 *52:368 2.52714 
55 *52:368 *52:370 58.2071 
56 *52:370 *52:376 22.8395 
57 *52:376 *346:s3 24.2836 
58 *52:376 *52:393 92.9346 
59 *52:393 *52:399 18.1279 
60 *52:399 *345:s3 24.103 
61 *52:399 *52:422 43.6921 
62 *52:422 *52:432 42.2232 
63 *52:432 *52:434 108.605 
64 *52:434 *337:s3 46.7655 
65 *52:268 *350:s3 47.7773 
66 *52:13 *344:s3 47.8186 
*END

*D_NET *61 0.433057
*CONN
*P io_in[3] I
*I *337:s4 I *D sky130_osu_ring_oscillator_mpr2aa_8_b0r1
*I *345:s4 I *D sky130_osu_ring_oscillator_mpr2at_8_b0r1
*I *346:s4 I *D sky130_osu_ring_oscillator_mpr2ca_8_b0r1
*I *347:s4 I *D sky130_osu_ring_oscillator_mpr2ct_8_b0r1
*I *348:s4 I *D sky130_osu_ring_oscillator_mpr2ea_8_b0r1
*I *349:s4 I *D sky130_osu_ring_oscillator_mpr2et_8_b0r1
*I *350:s4 I *D sky130_osu_ring_oscillator_mpr2xa_8_b0r1
*I *351:s4 I *D sky130_osu_ring_oscillator_mpr2ya_8_b0r1
*I *352:s4 I *D sky130_osu_ring_oscillator_mpr2aa_8_b0r2
*I *338:s4 I *D sky130_osu_ring_oscillator_mpr2at_8_b0r2
*I *339:s4 I *D sky130_osu_ring_oscillator_mpr2ca_8_b0r2
*I *340:s4 I *D sky130_osu_ring_oscillator_mpr2ct_8_b0r2
*I *341:s4 I *D sky130_osu_ring_oscillator_mpr2ea_8_b0r2
*I *342:s4 I *D sky130_osu_ring_oscillator_mpr2et_8_b0r2
*I *343:s4 I *D sky130_osu_ring_oscillator_mpr2xa_8_b0r2
*I *344:s4 I *D sky130_osu_ring_oscillator_mpr2ya_8_b0r2
*CAP
1 io_in[3] 0.0594328
2 *337:s4 0.00099122
3 *345:s4 0.00107581
4 *346:s4 0.00116969
5 *347:s4 0.00118166
6 *348:s4 0.00182889
7 *349:s4 0.00137395
8 *350:s4 0.00469893
9 *351:s4 0.000625301
10 *352:s4 0.00101876
11 *338:s4 0.000120402
12 *339:s4 0.00107139
13 *340:s4 0.0011735
14 *341:s4 0.000116315
15 *342:s4 0.00239385
16 *343:s4 0.000523575
17 *344:s4 0.000706885
18 *61:495 4.82033e-06
19 *61:480 0.00536531
20 *61:478 0.0054604
21 *61:458 0.00611405
22 *61:456 0.00455253
23 *61:429 0.00560917
24 *61:408 0.00522065
25 *61:404 0.00384107
26 *61:402 0.00398498
27 *61:370 0.00540143
28 *61:368 0.00452394
29 *61:348 0.00680491
30 *61:346 0.00413553
31 *61:344 0.0030832
32 *61:315 0.00501184
33 *61:313 0.00340093
34 *61:291 0.00158199
35 *61:283 0.00297288
36 *61:281 0.00234415
37 *61:263 0.00400698
38 *61:249 0.000930984
39 *61:237 0.0045553
40 *61:229 0.00414149
41 *61:227 0.00436288
42 *61:198 0.00370795
43 *61:192 0.00338919
44 *61:171 0.00367058
45 *61:159 0.00235436
46 *61:157 0.00273999
47 *61:141 0.00182177
48 *61:131 0.00333588
49 *61:121 0.00715743
50 *61:119 0.00470275
51 *61:117 0.00167003
52 *61:87 3.21605e-06
53 *61:73 0.00475576
54 *61:71 0.00465211
55 *61:41 0.00480351
56 *61:39 0.00395198
57 *61:15 0.000995899
58 *61:13 0.0103862
59 *61:11 0.0103862
60 *61:9 0.0120889
61 *61:7 0.0120889
62 *61:5 0.0594328
63 *337:s4 *337:s5 0
64 *342:s4 *304:8 0
65 *343:s4 *305:8 0
66 *345:s4 *307:10 2.86005e-05
67 *345:s4 *323:8 8.4449e-05
68 *350:s4 *312:8 0
69 *352:s4 *352:s5 0
70 *61:13 *62:13 0.0290283
71 *61:13 *62:29 0.000453354
72 *61:41 *305:8 0.000313553
73 *61:71 *305:8 8.32101e-05
74 *61:121 *62:130 0
75 *61:157 *62:130 0
76 *61:159 *62:130 0
77 *61:171 *62:151 8.91318e-05
78 *61:171 *62:153 0.000156745
79 *61:227 *62:177 0
80 *61:229 *323:10 0
81 *61:229 *330:11 0.00412864
82 *61:281 *352:s5 0.000255568
83 *61:283 *62:217 0.00322991
84 *61:283 *62:225 0.00168056
85 *61:291 *62:225 0.000256161
86 *61:291 *62:241 0.000269229
87 *61:344 *62:275 0
88 *61:348 *254:14 0
89 *61:348 *323:10 0
90 *61:368 *62:281 0
91 *61:368 *254:14 0
92 *61:368 *323:10 0
93 *61:370 *62:291 0.00769844
94 *61:370 *62:301 0.00129471
95 *61:402 *62:301 0.000524749
96 *61:404 *62:301 0
97 *61:404 *62:331 0
98 *61:404 *62:333 0
99 *61:408 *62:333 0
100 *61:429 *62:333 0
101 *61:429 *62:349 0.00110442
102 *61:429 *62:351 2.56923e-05
103 *61:456 *62:351 0.00025677
104 *61:478 *62:371 0
105 *339:s3 *339:s4 0.00219661
106 *340:s3 *340:s4 0.00171886
107 *342:s3 *61:117 0.000224393
108 *347:s3 *347:s4 0.00190507
109 *347:s3 *61:408 0.000241974
110 *352:s3 *352:s4 0
111 *352:s3 *61:281 0
112 *52:13 *61:13 0.00219683
113 *52:61 *61:117 7.23111e-06
114 *52:87 *61:121 0.00783013
115 *52:117 *61:121 0
116 *52:117 *61:157 0
117 *52:117 *61:159 0
118 *52:117 *61:171 0
119 *52:121 *340:s4 6.7705e-05
120 *52:144 *61:171 6.17582e-05
121 *52:144 *61:192 0.00548373
122 *52:144 *61:198 0.00106279
123 *52:150 *61:198 0.000612126
124 *52:173 *61:227 0
125 *52:183 *61:237 0.00127351
126 *52:183 *61:249 0
127 *52:195 *61:249 0.00125446
128 *52:209 *61:237 6.17582e-05
129 *52:209 *61:263 0.00751587
130 *52:209 *61:281 0.000269832
131 *52:225 *61:281 0.000200288
132 *52:225 *61:283 0
133 *52:229 *61:283 0.0016975
134 *52:231 *61:283 0.00205058