*SPEF "ieee 1481-1999"
*DESIGN "user_project_wrapper"
*DATE "11:11:11 Fri 11 11, 1111"
*VENDOR "OpenRCX"
*PROGRAM "Parallel Extraction"
*VERSION "1.0"
*DESIGN_FLOW "NAME_SCOPE LOCAL" "PIN_CAP NONE"
*DIVIDER /
*DELIMITER :
*BUS_DELIMITER []
*T_UNIT 1 NS
*C_UNIT 1 PF
*R_UNIT 1 OHM
*L_UNIT 1 HENRY

*NAME_MAP
*1 analog_io[0]
*2 analog_io[10]
*3 analog_io[11]
*4 analog_io[12]
*5 analog_io[13]
*6 analog_io[14]
*7 analog_io[15]
*8 analog_io[16]
*9 analog_io[17]
*10 analog_io[18]
*11 analog_io[19]
*12 analog_io[1]
*13 analog_io[20]
*14 analog_io[21]
*15 analog_io[22]
*16 analog_io[23]
*17 analog_io[24]
*18 analog_io[25]
*19 analog_io[26]
*20 analog_io[27]
*21 analog_io[28]
*22 analog_io[2]
*23 analog_io[3]
*24 analog_io[4]
*25 analog_io[5]
*26 analog_io[6]
*27 analog_io[7]
*28 analog_io[8]
*29 analog_io[9]
*30 io_in[0]
*31 io_in[10]
*32 io_in[11]
*33 io_in[12]
*34 io_in[13]
*35 io_in[14]
*36 io_in[15]
*37 io_in[16]
*38 io_in[17]
*39 io_in[18]
*40 io_in[19]
*41 io_in[1]
*42 io_in[20]
*43 io_in[21]
*44 io_in[22]
*45 io_in[23]
*46 io_in[24]
*47 io_in[25]
*48 io_in[26]
*49 io_in[27]
*50 io_in[28]
*51 io_in[29]
*52 io_in[2]
*53 io_in[30]
*54 io_in[31]
*55 io_in[32]
*56 io_in[33]
*57 io_in[34]
*58 io_in[35]
*59 io_in[36]
*60 io_in[37]
*61 io_in[3]
*62 io_in[4]
*63 io_in[5]
*64 io_in[6]
*65 io_in[7]
*66 io_in[8]
*67 io_in[9]
*68 io_oeb[0]
*69 io_oeb[10]
*70 io_oeb[11]
*71 io_oeb[12]
*72 io_oeb[13]
*73 io_oeb[14]
*74 io_oeb[15]
*75 io_oeb[16]
*76 io_oeb[17]
*77 io_oeb[18]
*78 io_oeb[19]
*79 io_oeb[1]
*80 io_oeb[20]
*81 io_oeb[21]
*82 io_oeb[22]
*83 io_oeb[23]
*84 io_oeb[24]
*85 io_oeb[25]
*86 io_oeb[26]
*87 io_oeb[27]
*88 io_oeb[28]
*89 io_oeb[29]
*90 io_oeb[2]
*91 io_oeb[30]
*92 io_oeb[31]
*93 io_oeb[32]
*94 io_oeb[33]
*95 io_oeb[34]
*96 io_oeb[35]
*97 io_oeb[36]
*98 io_oeb[37]
*99 io_oeb[3]
*100 io_oeb[4]
*101 io_oeb[5]
*102 io_oeb[6]
*103 io_oeb[7]
*104 io_oeb[8]
*105 io_oeb[9]
*106 io_out[0]
*107 io_out[10]
*108 io_out[11]
*109 io_out[12]
*110 io_out[13]
*111 io_out[14]
*112 io_out[15]
*113 io_out[16]
*114 io_out[17]
*115 io_out[18]
*116 io_out[19]
*117 io_out[1]
*118 io_out[20]
*119 io_out[21]
*120 io_out[22]
*121 io_out[23]
*122 io_out[24]
*123 io_out[25]
*124 io_out[26]
*125 io_out[27]
*126 io_out[28]
*127 io_out[29]
*128 io_out[2]
*129 io_out[30]
*130 io_out[31]
*131 io_out[32]
*132 io_out[33]
*133 io_out[34]
*134 io_out[35]
*135 io_out[36]
*136 io_out[37]
*137 io_out[3]
*138 io_out[4]
*139 io_out[5]
*140 io_out[6]
*141 io_out[7]
*142 io_out[8]
*143 io_out[9]
*146 wb_clk_i
*147 wb_rst_i
*148 wbs_ack_o
*149 wbs_adr_i[0]
*150 wbs_adr_i[10]
*151 wbs_adr_i[11]
*152 wbs_adr_i[12]
*153 wbs_adr_i[13]
*154 wbs_adr_i[14]
*155 wbs_adr_i[15]
*156 wbs_adr_i[16]
*157 wbs_adr_i[17]
*158 wbs_adr_i[18]
*159 wbs_adr_i[19]
*160 wbs_adr_i[1]
*161 wbs_adr_i[20]
*162 wbs_adr_i[21]
*163 wbs_adr_i[22]
*164 wbs_adr_i[23]
*165 wbs_adr_i[24]
*166 wbs_adr_i[25]
*167 wbs_adr_i[26]
*168 wbs_adr_i[27]
*169 wbs_adr_i[28]
*170 wbs_adr_i[29]
*171 wbs_adr_i[2]
*172 wbs_adr_i[30]
*173 wbs_adr_i[31]
*174 wbs_adr_i[3]
*175 wbs_adr_i[4]
*176 wbs_adr_i[5]
*177 wbs_adr_i[6]
*178 wbs_adr_i[7]
*179 wbs_adr_i[8]
*180 wbs_adr_i[9]
*181 wbs_cyc_i
*182 wbs_dat_i[0]
*183 wbs_dat_i[10]
*184 wbs_dat_i[11]
*185 wbs_dat_i[12]
*186 wbs_dat_i[13]
*187 wbs_dat_i[14]
*188 wbs_dat_i[15]
*189 wbs_dat_i[16]
*190 wbs_dat_i[17]
*191 wbs_dat_i[18]
*192 wbs_dat_i[19]
*193 wbs_dat_i[1]
*194 wbs_dat_i[20]
*195 wbs_dat_i[21]
*196 wbs_dat_i[22]
*197 wbs_dat_i[23]
*198 wbs_dat_i[24]
*199 wbs_dat_i[25]
*200 wbs_dat_i[26]
*201 wbs_dat_i[27]
*202 wbs_dat_i[28]
*203 wbs_dat_i[29]
*204 wbs_dat_i[2]
*205 wbs_dat_i[30]
*206 wbs_dat_i[31]
*207 wbs_dat_i[3]
*208 wbs_dat_i[4]
*209 wbs_dat_i[5]
*210 wbs_dat_i[6]
*211 wbs_dat_i[7]
*212 wbs_dat_i[8]
*213 wbs_dat_i[9]
*214 wbs_dat_o[0]
*215 wbs_dat_o[10]
*216 wbs_dat_o[11]
*217 wbs_dat_o[12]
*218 wbs_dat_o[13]
*219 wbs_dat_o[14]
*220 wbs_dat_o[15]
*221 wbs_dat_o[16]
*222 wbs_dat_o[17]
*223 wbs_dat_o[18]
*224 wbs_dat_o[19]
*225 wbs_dat_o[1]
*226 wbs_dat_o[20]
*227 wbs_dat_o[21]
*228 wbs_dat_o[22]
*229 wbs_dat_o[23]
*230 wbs_dat_o[24]
*231 wbs_dat_o[25]
*232 wbs_dat_o[26]
*233 wbs_dat_o[27]
*234 wbs_dat_o[28]
*235 wbs_dat_o[29]
*236 wbs_dat_o[2]
*237 wbs_dat_o[30]
*238 wbs_dat_o[31]
*239 wbs_dat_o[3]
*240 wbs_dat_o[4]
*241 wbs_dat_o[5]
*242 wbs_dat_o[6]
*243 wbs_dat_o[7]
*244 wbs_dat_o[8]
*245 wbs_dat_o[9]
*246 wbs_sel_i[0]
*247 wbs_sel_i[1]
*248 wbs_sel_i[2]
*249 wbs_sel_i[3]
*250 wbs_stb_i
*251 wbs_we_i
*252 x1\[0\]
*253 x1\[10\]
*254 x1\[11\]
*255 x1\[12\]
*256 x1\[13\]
*257 x1\[14\]
*258 x1\[15\]
*259 x1\[1\]
*260 x1\[2\]
*261 x1\[3\]
*262 x1\[4\]
*263 x1\[5\]
*264 x1\[6\]
*265 x1\[7\]
*266 x1\[8\]
*267 x1\[9\]
*268 x2\[0\]
*269 x2\[10\]
*270 x2\[11\]
*271 x2\[12\]
*272 x2\[13\]
*273 x2\[14\]
*274 x2\[15\]
*275 x2\[1\]
*276 x2\[2\]
*277 x2\[3\]
*278 x2\[4\]
*279 x2\[5\]
*280 x2\[6\]
*281 x2\[7\]
*282 x2\[8\]
*283 x2\[9\]
*284 x3\[0\]
*285 x3\[10\]
*286 x3\[11\]
*287 x3\[12\]
*288 x3\[13\]
*289 x3\[14\]
*290 x3\[15\]
*291 x3\[1\]
*292 x3\[2\]
*293 x3\[3\]
*294 x3\[4\]
*295 x3\[5\]
*296 x3\[6\]
*297 x3\[7\]
*298 x3\[8\]
*299 x3\[9\]
*300 x4\[0\]
*301 x4\[10\]
*302 x4\[11\]
*303 x4\[12\]
*304 x4\[13\]
*305 x4\[14\]
*306 x4\[15\]
*307 x4\[1\]
*308 x4\[2\]
*309 x4\[3\]
*310 x4\[4\]
*311 x4\[5\]
*312 x4\[6\]
*313 x4\[7\]
*314 x4\[8\]
*315 x4\[9\]
*316 x5\[0\]
*317 x5\[10\]
*318 x5\[11\]
*319 x5\[12\]
*320 x5\[13\]
*321 x5\[14\]
*322 x5\[15\]
*323 x5\[1\]
*324 x5\[2\]
*325 x5\[3\]
*326 x5\[4\]
*327 x5\[5\]
*328 x5\[6\]
*329 x5\[7\]
*330 x5\[8\]
*331 x5\[9\]
*332 mprj1
*333 mprj2
*334 mprj3
*335 mprj4
*336 mprj5
*337 ro1
*338 ro10
*339 ro11
*340 ro12
*341 ro13
*342 ro14
*343 ro15
*344 ro16
*345 ro2
*346 ro3
*347 ro4
*348 ro5
*349 ro6
*350 ro7
*351 ro8
*352 ro9

*PORTS
analog_io[0] I
analog_io[10] I
analog_io[11] I
analog_io[12] I
analog_io[13] I
analog_io[14] I
analog_io[15] I
analog_io[16] I
analog_io[17] I
analog_io[18] I
analog_io[19] I
analog_io[1] I
analog_io[20] I
analog_io[21] I
analog_io[22] I
analog_io[23] I
analog_io[24] I
analog_io[25] I
analog_io[26] I
analog_io[27] I
analog_io[28] I
analog_io[2] I
analog_io[3] I
analog_io[4] I
analog_io[5] I
analog_io[6] I
analog_io[7] I
analog_io[8] I
analog_io[9] I
io_in[0] I
io_in[10] I
io_in[11] I
io_in[12] I
io_in[13] I
io_in[14] I
io_in[15] I
io_in[16] I
io_in[17] I
io_in[18] I
io_in[19] I
io_in[1] I
io_in[20] I
io_in[21] I
io_in[22] I
io_in[23] I
io_in[24] I
io_in[25] I
io_in[26] I
io_in[27] I
io_in[28] I
io_in[29] I
io_in[2] I
io_in[30] I
io_in[31] I
io_in[32] I
io_in[33] I
io_in[34] I
io_in[35] I
io_in[36] I
io_in[37] I
io_in[3] I
io_in[4] I
io_in[5] I
io_in[6] I
io_in[7] I
io_in[8] I
io_in[9] I
io_oeb[0] O
io_oeb[10] O
io_oeb[11] O
io_oeb[12] O
io_oeb[13] O
io_oeb[14] O
io_oeb[15] O
io_oeb[16] O
io_oeb[17] O
io_oeb[18] O
io_oeb[19] O
io_oeb[1] O
io_oeb[20] O
io_oeb[21] O
io_oeb[22] O
io_oeb[23] O
io_oeb[24] O
io_oeb[25] O
io_oeb[26] O
io_oeb[27] O
io_oeb[28] O
io_oeb[29] O
io_oeb[2] O
io_oeb[30] O
io_oeb[31] O
io_oeb[32] O
io_oeb[33] O
io_oeb[34] O
io_oeb[35] O
io_oeb[36] O
io_oeb[37] O
io_oeb[3] O
io_oeb[4] O
io_oeb[5] O
io_oeb[6] O
io_oeb[7] O
io_oeb[8] O
io_oeb[9] O
io_out[0] O
io_out[10] O
io_out[11] O
io_out[12] O
io_out[13] O
io_out[14] O
io_out[15] O
io_out[16] O
io_out[17] O
io_out[18] O
io_out[19] O
io_out[1] O
io_out[20] O
io_out[21] O
io_out[22] O
io_out[23] O
io_out[24] O
io_out[25] O
io_out[26] O
io_out[27] O
io_out[28] O
io_out[29] O
io_out[2] O
io_out[30] O
io_out[31] O
io_out[32] O
io_out[33] O
io_out[34] O
io_out[35] O
io_out[36] O
io_out[37] O
io_out[3] O
io_out[4] O
io_out[5] O
io_out[6] O
io_out[7] O
io_out[8] O
io_out[9] O
wb_clk_i I
wb_rst_i I
wbs_ack_o O
wbs_adr_i[0] I
wbs_adr_i[10] I
wbs_adr_i[11] I
wbs_adr_i[12] I
wbs_adr_i[13] I
wbs_adr_i[14] I
wbs_adr_i[15] I
wbs_adr_i[16] I
wbs_adr_i[17] I
wbs_adr_i[18] I
wbs_adr_i[19] I
wbs_adr_i[1] I
wbs_adr_i[20] I
wbs_adr_i[21] I
wbs_adr_i[22] I
wbs_adr_i[23] I
wbs_adr_i[24] I
wbs_adr_i[25] I
wbs_adr_i[26] I
wbs_adr_i[27] I
wbs_adr_i[28] I
wbs_adr_i[29] I
wbs_adr_i[2] I
wbs_adr_i[30] I
wbs_adr_i[31] I
wbs_adr_i[3] I
wbs_adr_i[4] I
wbs_adr_i[5] I
wbs_adr_i[6] I
wbs_adr_i[7] I
wbs_adr_i[8] I
wbs_adr_i[9] I
wbs_cyc_i I
wbs_dat_i[0] I
wbs_dat_i[10] I
wbs_dat_i[11] I
wbs_dat_i[12] I
wbs_dat_i[13] I
wbs_dat_i[14] I
wbs_dat_i[15] I
wbs_dat_i[16] I
wbs_dat_i[17] I
wbs_dat_i[18] I
wbs_dat_i[19] I
wbs_dat_i[1] I
wbs_dat_i[20] I
wbs_dat_i[21] I
wbs_dat_i[22] I
wbs_dat_i[23] I
wbs_dat_i[24] I
wbs_dat_i[25] I
wbs_dat_i[26] I
wbs_dat_i[27] I
wbs_dat_i[28] I
wbs_dat_i[29] I
wbs_dat_i[2] I
wbs_dat_i[30] I
wbs_dat_i[31] I
wbs_dat_i[3] I
wbs_dat_i[4] I
wbs_dat_i[5] I
wbs_dat_i[6] I
wbs_dat_i[7] I
wbs_dat_i[8] I
wbs_dat_i[9] I
wbs_dat_o[0] O
wbs_dat_o[10] O
wbs_dat_o[11] O
wbs_dat_o[12] O
wbs_dat_o[13] O
wbs_dat_o[14] O
wbs_dat_o[15] O
wbs_dat_o[16] O
wbs_dat_o[17] O
wbs_dat_o[18] O
wbs_dat_o[19] O
wbs_dat_o[1] O
wbs_dat_o[20] O
wbs_dat_o[21] O
wbs_dat_o[22] O
wbs_dat_o[23] O
wbs_dat_o[24] O
wbs_dat_o[25] O
wbs_dat_o[26] O
wbs_dat_o[27] O
wbs_dat_o[28] O
wbs_dat_o[29] O
wbs_dat_o[2] O
wbs_dat_o[30] O
wbs_dat_o[31] O
wbs_dat_o[3] O
wbs_dat_o[4] O
wbs_dat_o[5] O
wbs_dat_o[6] O
wbs_dat_o[7] O
wbs_dat_o[8] O
wbs_dat_o[9] O
wbs_sel_i[0] I
wbs_sel_i[1] I
wbs_sel_i[2] I
wbs_sel_i[3] I
wbs_stb_i I
wbs_we_i I

*D_NET *30 0.431202
*CONN
*P io_in[0] I
*I *344:s1 I *D sky130_osu_ring_oscillator_mpr2ya_8_b0r2
*I *350:s1 I *D sky130_osu_ring_oscillator_mpr2xa_8_b0r1
*I *347:s1 I *D sky130_osu_ring_oscillator_mpr2ct_8_b0r1
*I *345:s1 I *D sky130_osu_ring_oscillator_mpr2at_8_b0r1
*I *337:s1 I *D sky130_osu_ring_oscillator_mpr2aa_8_b0r1
*I *346:s1 I *D sky130_osu_ring_oscillator_mpr2ca_8_b0r1
*I *348:s1 I *D sky130_osu_ring_oscillator_mpr2ea_8_b0r1
*I *349:s1 I *D sky130_osu_ring_oscillator_mpr2et_8_b0r1
*I *351:s1 I *D sky130_osu_ring_oscillator_mpr2ya_8_b0r1
*I *352:s1 I *D sky130_osu_ring_oscillator_mpr2aa_8_b0r2
*I *338:s1 I *D sky130_osu_ring_oscillator_mpr2at_8_b0r2
*I *339:s1 I *D sky130_osu_ring_oscillator_mpr2ca_8_b0r2
*I *340:s1 I *D sky130_osu_ring_oscillator_mpr2ct_8_b0r2
*I *341:s1 I *D sky130_osu_ring_oscillator_mpr2ea_8_b0r2
*I *342:s1 I *D sky130_osu_ring_oscillator_mpr2et_8_b0r2
*I *343:s1 I *D sky130_osu_ring_oscillator_mpr2xa_8_b0r2
*CAP
1 io_in[0] 0.0689495
2 *344:s1 0.000651032
3 *350:s1 0.000392815
4 *347:s1 0.000157206
5 *345:s1 0.000518504
6 *337:s1 0.000630962
7 *346:s1 0.000211206
8 *348:s1 0.000407593
9 *349:s1 0.000566798
10 *351:s1 0.000333648
11 *352:s1 0.000609863
12 *338:s1 0.0019188
13 *339:s1 0.000266705
14 *340:s1 0.000142322
15 *341:s1 0.000488588
16 *342:s1 0.000539758
17 *343:s1 0.00042054
18 *30:248 0.00339324
19 *30:246 0.00276227
20 *30:244 0.000958004
21 *30:236 0.00330689
22 *30:222 0.00594114
23 *30:220 0.00327706
24 *30:216 0.00516534
25 *30:201 0.00764187
26 *30:199 0.00323289
27 *30:178 0.00427013
28 *30:176 0.00319955
29 *30:172 0.000481257
30 *30:170 0.003002
31 *30:159 0.00658982
32 *30:149 0.00685938
33 *30:147 0.00351046
34 *30:143 0.000808493
35 *30:125 0.00433853
36 *30:123 0.0027131
37 *30:110 0.0026302
38 *30:98 0.0055726
39 *30:78 0.00427054
40 *30:72 0.00307842
41 *30:70 0.00330202
42 *30:53 0.00430911
43 *30:42 0.00490918
44 *30:40 0.00183842
45 *30:23 0.00329616
46 *30:21 0.00326151
47 *30:13 0.00343685
48 *30:9 0.0411175
49 *30:7 0.0388644
50 *30:5 0.0689495
51 *338:s1 *267:11 0
52 *341:s1 *341:start 2.10824e-05
53 *342:s1 *342:start 9.58181e-05
54 *343:s1 *343:start 4.25627e-05
55 *346:s1 *346:start 2.78002e-05
56 *349:s1 *349:start 9.58181e-05
57 *351:s1 *351:start 1.58086e-06
58 *30:9 *62:33 0.00118638
59 *30:13 *41:13 0.00517433
60 *30:13 *41:21 0.00185148
61 *30:21 *41:21 0.000508721
62 *30:23 *41:23 0.00645937
63 *30:40 *41:23 0.000293787
64 *30:42 *41:23 0.000204293
65 *30:42 *41:51 0.00117484
66 *30:42 *41:53 0.00391373
67 *30:42 *52:75 0.00374471
68 *30:53 *41:53 0.000715039
69 *30:53 *41:80 0.00681913
70 *30:53 *52:75 0.000422026
71 *30:70 *41:80 0.000660499
72 *30:70 *41:110 0.000772863
73 *30:72 *41:110 0.00517333
74 *30:110 *41:147 0.00391768
75 *30:147 *338:start 1.24368e-05
76 *30:149 *41:175 0.000822508
77 *30:149 *41:199 0.00645351
78 *30:159 *41:199 0.000958673
79 *30:159 *41:227 0.00693622
80 *30:170 *41:227 0.000522457
81 *30:170 *41:255 0.00688085
82 *30:176 *350:start 8.33968e-06
83 *30:178 *41:255 0.000282197
84 *30:178 *41:274 0.00309809
85 *30:178 *41:278 0.00178671
86 *30:199 *349:s2 0
87 *30:199 *41:278 0.000790113
88 *30:199 *41:305 0.000446032
89 *30:201 *41:305 0.00225858
90 *30:201 *41:315 0.00236187
91 *30:216 *41:315 0.000254427
92 *30:222 *41:387 0.00667257
93 *30:236 *41:387 0.00104158
94 *30:236 *41:410 0.00594538
95 *30:244 *345:start 2.43686e-05
96 *30:244 *41:410 0.000210398
97 *30:244 *41:416 0.00011628
98 *30:248 *41:416 0.000183732
99 *30:248 *41:436 0.00236454
*RES
1 io_in[0] *30:5 213.377 
2 *30:5 *30:7 3.41 
3 *30:7 *30:9 778.482 
4 *30:9 *30:13 14.3391 
5 *30:13 *30:21 5.31507 
6 *30:21 *30:23 82.6964 
7 *30:23 *343:s1 21.9741 
8 *30:23 *30:40 4.60714 
9 *30:40 *30:42 91.1518 
10 *30:42 *342:s1 24.5143 
11 *30:42 *30:53 92.4107 
12 *30:53 *341:s1 22.8259 
13 *30:53 *30:70 33.3839 
14 *30:70 *30:72 64.5 
15 *30:72 *30:78 9.2452 
16 *30:78 *340:s1 7.23214 
17 *30:78 *30:98 65.6964 
18 *30:98 *30:110 45.3824 
19 *30:110 *339:s1 4.2513 
20 *30:110 *30:123 3.41 
21 *30:123 *30:125 55.4464 
22 *30:125 *338:s1 33.7902 
23 *338:s1 *30:143 10.2723 
24 *30:143 *30:147 14.4821 
25 *30:147 *30:149 90.5893 
26 *30:149 *352:s1 16.4732 
27 *30:149 *30:159 98.4821 
28 *30:159 *351:s1 20.3446 
29 *30:159 *30:170 92.1071 
30 *30:170 *30:172 4.5 
31 *30:172 *30:176 5.85714 
32 *30:176 *30:178 95.75 
33 *30:178 *349:s1 25.242 
34 *30:178 *30:199 22.235 
35 *30:199 *30:201 78.9018 
36 *30:201 *348:s1 21.8982 
37 *30:201 *30:216 92.5625 
38 *30:216 *30:220 8.26786 
39 *30:220 *30:222 85.8661 
40 *30:222 *346:s1 8.62054 
41 *30:222 *30:236 87.0982 
42 *30:236 *30:244 15.5804 
43 *30:244 *30:246 4.5 
44 *30:246 *30:248 77.8393 
45 *30:248 *337:s1 16.4732 
46 *30:244 *345:s1 19.5455 
47 *30:216 *347:s1 7.74554 
48 *30:172 *350:s1 16.5625 
49 *30:13 *344:s1 25.1151 
*END

*D_NET *41 0.460138
*CONN
*P io_in[1] I
*I *344:s2 I *D sky130_osu_ring_oscillator_mpr2ya_8_b0r2
*I *337:s2 I *D sky130_osu_ring_oscillator_mpr2aa_8_b0r1
*I *345:s2 I *D sky130_osu_ring_oscillator_mpr2at_8_b0r1
*I *346:s2 I *D sky130_osu_ring_oscillator_mpr2ca_8_b0r1
*I *347:s2 I *D sky130_osu_ring_oscillator_mpr2ct_8_b0r1
*I *348:s2 I *D sky130_osu_ring_oscillator_mpr2ea_8_b0r1
*I *349:s2 I *D sky130_osu_ring_oscillator_mpr2et_8_b0r1
*I *350:s2 I *D sky130_osu_ring_oscillator_mpr2xa_8_b0r1
*I *351:s2 I *D sky130_osu_ring_oscillator_mpr2ya_8_b0r1
*I *352:s2 I *D sky130_osu_ring_oscillator_mpr2aa_8_b0r2
*I *338:s2 I *D sky130_osu_ring_oscillator_mpr2at_8_b0r2
*I *339:s2 I *D sky130_osu_ring_oscillator_mpr2ca_8_b0r2
*I *340:s2 I *D sky130_osu_ring_oscillator_mpr2ct_8_b0r2
*I *341:s2 I *D sky130_osu_ring_oscillator_mpr2ea_8_b0r2
*I *342:s2 I *D sky130_osu_ring_oscillator_mpr2et_8_b0r2
*I *343:s2 I *D sky130_osu_ring_oscillator_mpr2xa_8_b0r2
*CAP
1 io_in[1] 0.0609744
2 *344:s2 0.00066072
3 *337:s2 0.00198607
4 *345:s2 0.00215332
5 *346:s2 0.00189382
6 *347:s2 0.00410048
7 *348:s2 0.000345484
8 *349:s2 0.00229797
9 *350:s2 0.0014327
10 *351:s2 0.00196491
11 *352:s2 0.00203578
12 *338:s2 0.0023045
13 *339:s2 0.000458271
14 *340:s2 0.00177419
15 *341:s2 0.00204852
16 *342:s2 0.00164521
17 *343:s2 0.00178461
18 *41:436 0.00495658
19 *41:416 0.00541919
20 *41:410 0.00299273
21 *41:387 0.00775756
22 *41:385 0.00542264
23 *41:335 0.00447267
24 *41:315 0.00563393
25 *41:305 0.00446032
26 *41:278 0.00512894
27 *41:274 0.00330635
28 *41:255 0.00674214
29 *41:250 0
30 *41:227 0.00807315
31 *41:199 0.00816552
32 *41:175 0.00788184
33 *41:173 0.00369771
34 *41:169 0.00337689
35 *41:147 0.00461087
36 *41:135 0.00473288
37 *41:110 0.00803066
38 *41:82 0.00557058
39 *41:80 0.00289143
40 *41:53 0.00625583
41 *41:51 0.00314089
42 *41:23 0.00609512
43 *41:21 0.00399124
44 *41:13 0.00842097
45 *41:9 0.0359531
46 *41:7 0.0292481
47 *41:5 0.0609744
48 *342:s2 *52:79 0.00322458
49 *343:s2 *52:73 0.000559755
50 *347:s2 *277:16 0
51 *349:s2 *278:7 0
52 *41:13 *344:s3 0.00194676
53 *41:13 *52:13 0.00911629
54 *30:13 *41:13 0.00517433
55 *30:13 *41:21 0.00185148
56 *30:21 *41:21 0.000508721
57 *30:23 *41:23 0.00645937
58 *30:40 *41:23 0.000293787
59 *30:42 *41:23 0.000204293
60 *30:42 *41:51 0.00117484
61 *30:42 *41:53 0.00391373
62 *30:53 *41:53 0.000715039
63 *30:53 *41:80 0.00681913
64 *30:70 *41:80 0.000660499
65 *30:70 *41:110 0.000772863
66 *30:72 *41:110 0.00517333
67 *30:110 *41:147 0.00391768
68 *30:149 *41:175 0.000822508
69 *30:149 *41:199 0.00645351
70 *30:159 *41:199 0.000958673
71 *30:159 *41:227 0.00693622
72 *30:170 *41:227 0.000522457
73 *30:170 *41:255 0.00688085
74 *30:178 *41:255 0.000282197
75 *30:178 *41:274 0.00309809
76 *30:178 *41:278 0.00178671
77 *30:199 *349:s2 0
78 *30:199 *41:278 0.000790113
79 *30:199 *41:305 0.000446032
80 *30:201 *41:305 0.00225858
81 *30:201 *41:315 0.00236187
82 *30:216 *41:315 0.000254427
83 *30:222 *41:387 0.00667257
84 *30:236 *41:387 0.00104158
85 *30:236 *41:410 0.00594538
86 *30:244 *41:410 0.000210398
87 *30:244 *41:416 0.00011628
88 *30:248 *41:416 0.000183732
89 *30:248 *41:436 0.00236454
*RES
1 io_in[1] *41:5 188.514 
2 *41:5 *41:7 3.41 
3 *41:7 *41:9 601.804 
4 *41:9 *41:13 36.3915 
5 *41:13 *41:21 8.16013 
6 *41:21 *41:23 89.9821 
7 *41:23 *343:s2 27.8038 
8 *41:23 *41:51 38.0179 
9 *41:51 *41:53 56.6786 
10 *41:53 *342:s2 32.3542 
11 *41:53 *41:80 91.8036 
12 *41:80 *41:82 0.946429 
13 *41:82 *341:s2 27.2554 
14 *41:82 *41:110 98.4821 
15 *41:110 *340:s2 36.866 
16 *41:110 *41:135 55.4107 
17 *41:135 *41:147 42.9142 
18 *41:147 *339:s2 11.4241 
19 *41:147 *41:169 48.4636 
20 *41:169 *41:173 6.84413 
21 *41:173 *41:175 53.5536 
22 *41:175 *338:s2 27.5092 
23 *41:175 *41:199 92.4107 
24 *41:199 *352:s2 26.742 
25 *41:199 *41:227 93.0179 
26 *41:227 *351:s2 25.5098 
27 *351:s2 *41:250 0.194444 
28 *41:227 *41:255 91.8036 
29 *41:255 *350:s2 16.166 
30 *41:255 *41:274 67.75 
31 *41:274 *41:278 32 
32 *41:278 *349:s2 33.462 
33 *41:278 *41:305 55.0357 
34 *41:305 *41:315 44.6578 
35 *41:315 *348:s2 10.8783 
36 *41:315 *41:335 53.8571 
37 *41:335 *347:s2 45.1897 
38 *347:s2 *41:385 29.1106 
39 *41:385 *41:387 96.0536 
40 *41:387 *346:s2 28.3713 
41 *41:387 *41:410 81.4821 
42 *41:410 *41:416 7.07143 
43 *41:416 *345:s2 16.2667 
44 *41:416 *41:436 82.0893 
45 *41:436 *337:s2 15.0434 
46 *41:13 *344:s2 21.1658 
*END

*D_NET *52 0.456944
*CONN
*P io_in[2] I
*I *346:s3 I *D sky130_osu_ring_oscillator_mpr2ca_8_b0r1
*I *337:s3 I *D sky130_osu_ring_oscillator_mpr2aa_8_b0r1
*I *345:s3 I *D sky130_osu_ring_oscillator_mpr2at_8_b0r1
*I *347:s3 I *D sky130_osu_ring_oscillator_mpr2ct_8_b0r1
*I *348:s3 I *D sky130_osu_ring_oscillator_mpr2ea_8_b0r1
*I *349:s3 I *D sky130_osu_ring_oscillator_mpr2et_8_b0r1
*I *350:s3 I *D sky130_osu_ring_oscillator_mpr2xa_8_b0r1
*I *351:s3 I *D sky130_osu_ring_oscillator_mpr2ya_8_b0r1
*I *352:s3 I *D sky130_osu_ring_oscillator_mpr2aa_8_b0r2
*I *338:s3 I *D sky130_osu_ring_oscillator_mpr2at_8_b0r2
*I *339:s3 I *D sky130_osu_ring_oscillator_mpr2ca_8_b0r2
*I *340:s3 I *D sky130_osu_ring_oscillator_mpr2ct_8_b0r2
*I *341:s3 I *D sky130_osu_ring_oscillator_mpr2ea_8_b0r2
*I *342:s3 I *D sky130_osu_ring_oscillator_mpr2et_8_b0r2
*I *343:s3 I *D sky130_osu_ring_oscillator_mpr2xa_8_b0r2
*I *344:s3 I *D sky130_osu_ring_oscillator_mpr2ya_8_b0r2
*CAP
1 io_in[2] 0.0573326
2 *346:s3 0.000660582
3 *337:s3 0.00263407
4 *345:s3 0.00212491
5 *347:s3 0.000742469
6 *348:s3 0.00250144
7 *349:s3 0.00196402
8 *350:s3 0.00221185
9 *351:s3 0.00173515
10 *352:s3 0.00248265
11 *338:s3 0.00245545
12 *339:s3 0.0022493
13 *340:s3 0.00261949
14 *341:s3 0.00228765
15 *342:s3 0.000639506
16 *343:s3 0.000655551
17 *344:s3 0.00209564
18 *52:475 0.00552767
19 *52:473 0.0028936
20 *52:449 0.00323289
21 *52:437 0.00384726
22 *52:435 0.0051438
23 *52:425 0.00356322
24 *52:421 0.00375663
25 *52:419 0.00325851
26 *52:398 0.00254844
27 *52:394 0.00529569
28 *52:392 0.00397192
29 *52:362 0.00298364
30 *52:360 0.00318201
31 *52:334 0.00567227
32 *52:326 0.00482075
33 *52:324 0.00517028
34 *52:298 0.00308763
35 *52:296 0.00467242
36 *52:268 0.0103355
37 *52:240 0.00670815
38 *52:234 0.00487456
39 *52:232 0.00457701
40 *52:208 0.00286095
41 *52:204 0.00303424
42 *52:202 0.00362728
43 *52:169 0.00448298
44 *52:167 0.00267915
45 *52:163 0.00212958
46 *52:156 0
47 *52:137 0.00687675
48 *52:135 0.00379833
49 *52:109 0.0025143
50 *52:107 0.0029416
51 *52:105 0.00436847
52 *52:79 0.00433455
53 *52:75 0.00528471
54 *52:73 0.00520855
55 *52:45 0.00484245
56 *52:39 0.00505561
57 *52:37 0.00306073
58 *52:13 0.0150051
59 *52:11 0.0129095
60 *52:9 0.0206673
61 *52:7 0.0206673
62 *52:5 0.0573326
63 *338:s3 *314:9 0
64 *339:s3 *339:s4 0.0011913
65 *339:s3 *62:149 7.17259e-05
66 *341:s3 *61:115 0.00054986
67 *345:s3 *300:15 0.000361922
68 *346:s3 *292:11 0
69 *349:s3 *294:7 0
70 *349:s3 *294:11 0.00182736
71 *350:s3 *61:292 0
72 *350:s3 *62:262 0
73 *351:s3 *351:s4 0
74 *351:s3 *61:238 0.000455776
75 *351:s3 *296:10 0.000890556
76 *352:s3 *62:201 0
77 *52:39 *62:33 0.00613389
78 *52:39 *62:51 0.000605109
79 *52:39 *62:53 0
80 *52:45 *61:59 0
81 *52:105 *61:107 0.00113149
82 *52:107 *61:109 0.0073708
83 *52:107 *287:14 0
84 *52:135 *61:115 1.39702e-05
85 *52:137 *61:147 0
86 *52:137 *62:101 0.00270577
87 *52:137 *62:129 0
88 *52:163 *61:147 0
89 *52:163 *62:129 0
90 *52:167 *61:147 0
91 *52:167 *62:129 0.00197201
92 *52:169 *61:147 0
93 *52:169 *62:129 0.00213674
94 *52:169 *62:149 0.000930866
95 *52:169 *317:13 2.09897e-05
96 *52:202 *335:data_in[9] 0.000370699
97 *52:204 *61:174 0.00549821
98 *52:204 *61:192 0.00048662
99 *52:204 *61:194 0
100 *52:204 *271:18 0.000812194
101 *52:208 *311:22 4.08232e-05
102 *52:208 *312:25 0.000167289
103 *52:208 *314:9 0
104 *52:234 *62:201 0
105 *52:234 *311:14 0
106 *52:234 *311:20 0
107 *52:268 *351:s5 0
108 *52:268 *61:238 0.00233696
109 *52:268 *62:201 0
110 *52:268 *62:211 0
111 *52:268 *62:233 0
112 *52:296 *350:s5 0
113 *52:296 *62:233 0
114 *52:296 *62:264 0
115 *52:326 *62:286 0.000401098
116 *52:326 *276:13 0.000842572
117 *52:326 *277:18 0.000795149
118 *52:326 *324:10 0
119 *52:334 *61:337 0.000162153
120 *52:334 *278:11 0
121 *52:334 *291:25 4.92016e-05
122 *52:334 *294:11 0.000307854
123 *52:360 *61:337 0.00234415
124 *52:360 *61:355 0.000783282
125 *52:360 *326:13 2.91477e-05
126 *52:392 *62:306 0.000458835
127 *52:392 *62:308 0
128 *52:392 *291:21 0
129 *52:394 *61:396 0.00311394
130 *52:394 *62:308 0
131 *52:394 *62:326 0.000242471
132 *52:394 *291:21 0
133 *52:394 *325:15 5.45706e-06
134 *52:398 *347:s4 0
135 *52:398 *61:396 0
136 *52:398 *260:17 0
137 *52:425 *292:11 0
138 *52:435 *62:326 0
139 *52:435 *62:342 0
140 *52:435 *276:11 0
141 *52:435 *291:21 0
142 *52:437 *61:451 0.000304421
143 *52:437 *62:342 0
144 *52:437 *62:344 0.00552945
145 *52:437 *291:21 0.000371505
146 *52:449 *345:s5 2.32377e-05
147 *52:449 *61:451 0.000461687
148 *52:449 *62:344 5.78595e-05
149 *52:449 *300:15 0.000169152
150 *52:449 *323:19 2.06725e-05
151 *52:475 *337:s4 8.54136e-05
152 *52:475 *61:474 0.0030899
153 *342:s2 *52:79 0.00322458
154 *343:s2 *52:73 0.000559755
155 *30:42 *52:75 0.00374471
156 *30:53 *52:75 0.000422026
157 *41:13 *344:s3 0.00194676
158 *41:13 *52:13 0.00911629
*RES
1 io_in[2] *52:5 165.813 
2 *52:5 *52:7 3.41 
3 *52:7 *52:9 425.125 
4 *52:9 *52:11 3.41 
5 *52:11 *52:13 47.611 
6 *52:13 *344:s3 28.0358 
7 *52:13 *52:37 3.41 
8 *52:37 *52:39 89.9821 
9 *52:39 *52:45 12.7765 
10 *52:45 *343:s3 17.5586 
11 *52:45 *52:73 16.9461 
12 *52:73 *52:75 91.1964 
13 *52:75 *52:79 12.0329 
14 *52:79 *342:s3 20.7677 
15 *52:79 *52:105 8.4296 
16 *52:105 *52:107 93.0179 
17 *52:107 *52:109 3.41 
18 *52:109 *341:s3 24.7196 
19 *52:109 *52:135 4.1056 
20 *52:135 *52:137 96.6607 
21 *52:137 *340:s3 30.207 
22 *340:s3 *52:156 0.194444 
23 *52:137 *52:163 14.0536 
24 *52:163 *52:167 43.7857 
25 *52:167 *52:169 38.3393 
26 *52:169 *339:s3 30.0107 
27 *52:169 *52:202 22.0762 
28 *52:202 *52:204 85.7321 
29 *52:204 *52:208 4.89833 
30 *52:208 *338:s3 28.6477 
31 *52:208 *52:232 3.41 
32 *52:232 *52:234 93.0179 
33 *52:234 *52:240 7.58767 
34 *52:240 *352:s3 32.3644 
35 *52:240 *52:268 86.9464 
36 *52:268 *351:s3 26.0634 
37 *52:268 *52:296 94.2321 
38 *52:296 *52:298 3.41 
39 *52:298 *350:s3 21.9268 
40 *52:298 *52:324 6.12347 
41 *52:324 *52:326 97.2679 
42 *52:326 *52:334 12.2924 
43 *52:334 *349:s3 32.1078 
44 *52:334 *52:360 88.7679 
45 *52:360 *52:362 3.41 
46 *52:362 *348:s3 24.7564 
47 *52:362 *52:392 10.5884 
48 *52:392 *52:394 87.2679 
49 *52:394 *52:398 8.93407 
50 *52:398 *347:s3 17.8701 
51 *52:398 *52:419 3.41 
52 *52:419 *52:421 67 
53 *52:421 *52:425 9.67857 
54 *52:425 *52:435 23.096 
55 *52:435 *52:437 86.375 
56 *52:437 *52:449 24.5042 
57 *52:449 *345:s3 25.1161 
58 *52:449 *52:473 3.41 
59 *52:473 *52:475 80.875 
60 *52:475 *337:s3 27.7065 
61 *52:425 *346:s3 17.5938 
*END

*D_NET *61 0.381025
*CONN
*P io_in[3] I
*I *340:s4 I *D sky130_osu_ring_oscillator_mpr2ct_8_b0r2
*I *337:s4 I *D sky130_osu_ring_oscillator_mpr2aa_8_b0r1
*I *345:s4 I *D sky130_osu_ring_oscillator_mpr2at_8_b0r1
*I *346:s4 I *D sky130_osu_ring_oscillator_mpr2ca_8_b0r1
*I *347:s4 I *D sky130_osu_ring_oscillator_mpr2ct_8_b0r1
*I *348:s4 I *D sky130_osu_ring_oscillator_mpr2ea_8_b0r1
*I *349:s4 I *D sky130_osu_ring_oscillator_mpr2et_8_b0r1
*I *350:s4 I *D sky130_osu_ring_oscillator_mpr2xa_8_b0r1
*I *351:s4 I *D sky130_osu_ring_oscillator_mpr2ya_8_b0r1
*I *352:s4 I *D sky130_osu_ring_oscillator_mpr2aa_8_b0r2
*I *338:s4 I *D sky130_osu_ring_oscillator_mpr2at_8_b0r2
*I *339:s4 I *D sky130_osu_ring_oscillator_mpr2ca_8_b0r2
*I *341:s4 I *D sky130_osu_ring_oscillator_mpr2ea_8_b0r2
*I *342:s4 I *D sky130_osu_ring_oscillator_mpr2et_8_b0r2
*I *343:s4 I *D sky130_osu_ring_oscillator_mpr2xa_8_b0r2
*I *344:s4 I *D sky130_osu_ring_oscillator_mpr2ya_8_b0r2
*CAP
1 io_in[3] 0.000854085
2 *340:s4 0.000371145
3 *337:s4 0.00120882
4 *345:s4 0.000960518
5 *346:s4 0.00152607
6 *347:s4 0.00186044
7 *348:s4 0.000287755
8 *349:s4 0.00162695
9 *350:s4 0.000161765
10 *351:s4 0.000615813
11 *352:s4 0.000345127
12 *338:s4 0.00106544
13 *339:s4 0.00154589
14 *341:s4 0.000780591
15 *342:s4 0.00180151
16 *343:s4 0.000168902
17 *344:s4 0.000441261
18 *61:474 0.00376336
19 *61:472 0.00255454
20 *61:455 0.00126358
21 *61:451 0.00194498
22 *61:449 0.00226532
23 *61:422 0.00523052
24 *61:420 0.00308105
25 *61:396 0.00356035
26 *61:390 0.00295104
27 *61:384 0.00425783
28 *61:382 0.00349058
29 *61:355 0.00234578
30 *61:337 0.00340189
31 *61:335 0.00306486
32 *61:302 0.00301312
33 *61:296 0.00458285
34 *61:292 0.00239919
35 *61:264 0.00459075
36 *61:238 0.00756923
37 *61:220 0.00603103
38 *61:200 0.00497407
39 *61:194 0.00627575
40 *61:192 0.00498164
41 *61:178 0.00139859
42 *61:174 0.00133503
43 *61:172 0.00137326
44 *61:149 0.00164941
45 *61:147 0.0055652
46 *61:145 0.00633264
47 *61:139 0.00495551
48 *61:115 0.00528404
49 *61:109 0.00348974
50 *61:107 0.00393328
51 *61:76 2.96927e-06
52 *61:61 0.00455704
53 *61:59 0.00453883
54 *61:33 0.00488779
55 *61:31 0.00406863
56 *61:13 0.0695945
57 *61:11 0.0691532
58 *61:9 0.0106707
59 *61:7 0.0115248
60 *337:s4 *316:15 0
61 *338:s4 *338:s5 0
62 *339:s4 *62:149 0.000490352
63 *340:s4 *302:11 0
64 *342:s4 *288:12 0.00099807
65 *342:s4 *304:12 0
66 *345:s4 *62:376 0.000850085
67 *345:s4 *300:15 0.000398004
68 *349:s4 *62:264 0
69 *349:s4 *311:12 0
70 *61:9 *62:9 0.00417622
71 *61:33 *305:11 0.000462687
72 *61:59 *305:11 8.9532e-05
73 *61:61 *288:12 0
74 *61:109 *287:14 0
75 *61:139 *302:11 0
76 *61:145 *254:11 0
77 *61:145 *286:11 0.00213482
78 *61:145 *302:13 0
79 *61:147 *271:18 0
80 *61:172 *62:149 0.000306237
81 *61:174 *271:18 0.00649055
82 *61:178 *338:s5 0
83 *61:192 *331:13 1.40207e-05
84 *61:194 *271:18 0
85 *61:194 *311:20 0
86 *61:194 *312:21 0
87 *61:238 *351:s5 8.5796e-05
88 *61:238 *62:201 0
89 *61:238 *62:211 0
90 *61:264 *312:19 0.000469717
91 *61:302 *263:10 0
92 *61:302 *295:8 0
93 *61:335 *278:11 0
94 *61:335 *294:11 0.000353883
95 *61:355 *348:s5 0.000285176
96 *61:355 *326:13 2.02794e-05
97 *61:396 *62:326 0
98 *61:396 *291:21 0
99 *61:422 *62:326 0
100 *61:422 *62:342 0
101 *61:422 *260:13 0.00540654
102 *61:449 *62:342 0
103 *61:451 *345:s5 5.19522e-06
104 *61:451 *62:344 0.00564475
105 *61:451 *291:21 0.00511071
106 *61:451 *323:19 8.22793e-06
107 *61:455 *62:376 7.0351e-05
108 *61:455 *300:15 0.000243653
109 *339:s3 *339:s4 0.0011913
110 *341:s3 *61:115 0.00054986
111 *350:s3 *61:292 0
112 *351:s3 *351:s4 0
113 *351:s3 *61:238 0.000455776
114 *52:45 *61:59 0
115 *52:105 *61:107 0.00113149
116 *52:107 *61:109 0.0073708
117 *52:135 *61:115 1.39702e-05
118 *52:137 *61:147 0
119 *52:163 *61:147 0
120 *52:167 *61:147 0
121 *52:169 *61:147 0
122 *52:204 *61:174 0.00549821
123 *52:204 *61:192 0.00048662
124 *52:204 *61:194 0
125 *52:268 *61:238 0.00233696
126 *52:334 *61:337 0.000162153
127 *52:360 *61:337 0.00234415
128 *52:360 *61:355 0.000783282
129 *52:394 *61:396 0.00311394
130 *52:398 *347:s4 0
131 *52:398 *61:396 0
132 *52:437 *61:451 0.000304421
133 *52:449 *61:451 0.000461687
134 *52:475 *337:s4 8.54136e-05
135 *52:475 *61:474 0.0030899
*RES
1 io_in[3] *61:7 5.99187 
2 *61:7 *61:9 238.732 
3 *61:9 *61:11 3.41 
4 *61:11 *61:13 213.581 
5 *61:13 *344:s4 6.60089 
6 *61:13 *61:31 3.41 
7 *61:31 *61:33 84.6696 
8 *61:33 *343:s4 7.86607 
9 *61:33 *61:59 14.1875 
10 *61:59 *61:61 79.0536 
11 *61:61 *342:s4 15.1125 
12 *342:s4 *61:76 1.16667 
13 *342:s4 *61:107 26.536 
14 *61:107 *61:109 90.5893 
15 *61:109 *61:115 9.31727 
16 *61:115 *341:s4 15.3922 
17 *61:115 *61:139 77.8393 
18 *61:139 *61:145 10.1821 
19 *61:145 *61:147 113.054 
20 *61:147 *61:149 3.41 
21 *61:149 *339:s4 23.4445 
22 *61:149 *61:172 3.8894 
23 *61:172 *61:174 79.8125 
24 *61:174 *61:178 5.44643 
25 *61:178 *338:s4 20.6161 
26 *61:178 *61:192 12.3125 
27 *61:192 *61:194 95.4464 
28 *61:194 *61:200 11.2631 
29 *61:200 *352:s4 10.6135 